<?xml version="1.0" encoding="UTF-8"?>

<!-- generated on Thu 22 Apr 2021 12:06:18 AM EDT by Eclipse SUMO netedit Version 1.9.0
<configuration xmlns:xsi="http://www.w3.org/2001/XMLSchema-instance" xsi:noNamespaceSchemaLocation="http://sumo.dlr.de/xsd/netconvertConfiguration.xsd">

    <input>
        <sumo-net-file value="/home/dev/Desktop/BM_Scenarios/basic/curve_ahead_3e_1w.net.xml"/>
    </input>

    <output>
        <output-file value="/home/dev/Desktop/BM_Scenarios/basic/curve_ahead_3e_1w.net.xml"/>
    </output>

    <processing>
        <geometry.min-radius.fix.railways value="false"/>
        <geometry.max-grade.fix value="false"/>
        <offset.disable-normalization value="true"/>
        <lefthand value="false"/>
    </processing>

    <junctions>
        <no-internal-links value="true"/>
        <no-turnarounds value="true"/>
        <junctions.corner-detail value="5"/>
        <junctions.limit-turn-speed value="5.5"/>
        <rectangular-lane-cut value="false"/>
    </junctions>

    <pedestrian>
        <walkingareas value="false"/>
    </pedestrian>

    <report>
        <aggregate-warnings value="5"/>
    </report>

</configuration>
-->

<net version="1.9" junctionCornerDetail="5" limitTurnSpeed="5.50" xmlns:xsi="http://www.w3.org/2001/XMLSchema-instance" xsi:noNamespaceSchemaLocation="http://sumo.dlr.de/xsd/net_file.xsd">

    <location netOffset="0.00,0.00" convBoundary="-29.92,-2.52,256.01,35.19" origBoundary="-10000000000.00,-10000000000.00,10000000000.00,10000000000.00" projParameter="!"/>

    <edge id="-curve_ahead" from="east_end" to="west_end" priority="-1" shape="256.01,35.19 254.18,34.25 252.34,33.33 250.51,32.42 248.68,31.51 246.85,30.62 245.02,29.75 243.19,28.88 241.36,28.03 239.53,27.18 237.71,26.35 235.88,25.53 234.05,24.73 232.23,23.93 230.40,23.15 228.57,22.38 226.75,21.62 224.93,20.87 223.10,20.13 221.28,19.41 219.46,18.70 217.64,17.99 215.82,17.30 214.00,16.63 212.18,15.96 210.36,15.31 208.54,14.67 206.72,14.04 204.90,13.42 203.09,12.81 201.27,12.21 199.45,11.63 197.64,11.06 195.82,10.50 194.01,9.95 192.20,9.42 190.38,8.89 188.57,8.38 186.76,7.88 184.95,7.39 183.14,6.91 181.33,6.45 179.52,5.99 177.71,5.55 175.90,5.12 174.09,4.70 172.29,4.29 170.48,3.90 168.67,3.52 166.87,3.15 165.06,2.79 163.26,2.44 161.46,2.10 159.65,1.78 157.85,1.47 156.05,1.16 154.25,0.88 152.45,0.60 150.65,0.33 148.85,0.08 147.05,-0.16 145.25,-0.39 143.45,-0.61 141.66,-0.82 139.86,-1.01 138.06,-1.19 136.27,-1.37 134.47,-1.52 132.68,-1.67 130.88,-1.81 129.09,-1.93 127.30,-2.04 125.51,-2.14 123.72,-2.23 121.92,-2.31 120.13,-2.38 118.34,-2.43 116.56,-2.47 114.77,-2.50 112.98,-2.52 111.19,-2.52 109.40,-2.52 107.62,-2.50 105.83,-2.47 104.05,-2.43 102.26,-2.38 100.48,-2.31 98.70,-2.24 96.91,-2.15 95.13,-2.05 93.35,-1.94 91.57,-1.82 89.79,-1.68 88.01,-1.53 86.23,-1.38 84.45,-1.21 82.67,-1.02 80.89,-0.83 79.12,-0.62 77.34,-0.41 75.57,-0.18 73.79,0.06 72.02,0.32 70.24,0.58 68.47,0.86 66.70,1.15 64.92,1.45 63.15,1.76 61.38,2.08 59.61,2.42 57.84,2.76 56.07,3.12 54.30,3.49 52.53,3.88 50.76,4.27 49.00,4.68 47.23,5.09 45.47,5.52 43.70,5.96 41.93,6.42 40.17,6.88 38.41,7.36 36.64,7.85 34.88,8.35 33.12,8.86 31.36,9.38 29.60,9.92 27.84,10.47 26.08,11.02 24.32,11.60 22.56,12.18 20.80,12.77 19.05,13.38 17.29,14.00 15.53,14.63 13.78,15.27 12.02,15.92 10.27,16.59 8.51,17.26 6.76,17.95 5.01,18.65 3.26,19.36 1.50,20.09 -0.25,20.82 -2.00,21.57 -3.75,22.33 -5.50,23.10 -7.24,23.88 -8.99,24.68 -10.74,25.48 -12.49,26.30 -14.23,27.13 -15.98,27.97 -17.72,28.83 -19.47,29.69 -21.21,30.57 -22.96,31.46 -24.70,32.36 -26.44,33.27 -28.18,34.20 -29.92,35.13">
        <lane id="-curve_ahead_0" index="0" speed="13.89" length="298.67" shape="255.28,36.61 253.46,35.68 251.63,34.76 249.80,33.85 247.97,32.95 246.16,32.06 244.33,31.20 242.51,30.33 240.69,29.48 238.86,28.63 237.05,27.81 235.23,26.99 233.41,26.20 231.59,25.40 229.78,24.62 227.95,23.86 226.14,23.10 224.33,22.35 222.51,21.62 220.69,20.90 218.88,20.19 217.07,19.48 215.26,18.80 213.45,18.13 211.63,17.46 209.83,16.82 208.01,16.18 206.20,15.55 204.39,14.94 202.58,14.33 200.78,13.73 198.97,13.16 197.16,12.59 195.35,12.03 193.55,11.48 191.75,10.96 189.94,10.43 188.14,9.92 186.34,9.42 184.54,8.94 182.74,8.46 180.94,8.00 179.13,7.54 177.34,7.11 175.53,6.68 173.73,6.26 171.94,5.85 170.15,5.46 168.34,5.09 166.55,4.72 164.75,4.36 162.96,4.01 161.17,3.67 159.37,3.36 157.58,3.05 155.79,2.74 154.00,2.46 152.21,2.18 150.42,1.91 148.63,1.67 146.84,1.43 145.05,1.20 143.26,0.98 141.48,0.77 139.70,0.58 137.90,0.40 136.12,0.22 134.34,0.07 132.55,-0.08 130.76,-0.21 128.99,-0.33 127.21,-0.44 125.43,-0.54 123.64,-0.63 121.85,-0.71 120.08,-0.78 118.30,-0.83 116.53,-0.87 114.75,-0.90 112.97,-0.92 111.19,-0.92 109.41,-0.92 107.64,-0.90 105.86,-0.87 104.09,-0.83 102.31,-0.78 100.54,-0.71 98.77,-0.64 97.00,-0.55 95.22,-0.45 93.45,-0.34 91.69,-0.22 89.92,-0.09 88.14,0.06 86.37,0.21 84.61,0.38 82.84,0.57 81.07,0.76 79.31,0.97 77.54,1.18 75.78,1.41 74.01,1.64 72.25,1.90 70.48,2.16 68.72,2.44 66.96,2.73 65.19,3.03 63.43,3.34 61.67,3.65 59.91,3.99 58.15,4.33 56.39,4.69 54.64,5.05 52.87,5.44 51.11,5.83 49.36,6.24 47.60,6.65 45.85,7.07 44.09,7.51 42.33,7.97 40.58,8.43 38.83,8.90 37.07,9.39 35.32,9.89 33.57,10.40 31.82,10.91 30.07,11.45 28.32,12.00 26.57,12.54 24.82,13.12 23.06,13.70 21.32,14.28 19.58,14.89 17.83,15.51 16.07,16.13 14.33,16.77 12.58,17.42 10.84,18.08 9.09,18.75 7.35,19.44 5.61,20.13 3.87,20.84 2.11,21.57 0.37,22.29 -1.37,23.04 -3.11,23.80 -4.85,24.56 -6.58,25.34 -8.32,26.14 -10.07,26.93 -11.81,27.75 -13.54,28.57 -15.28,29.41 -17.01,30.27 -18.76,31.12 -20.49,32.00 -22.23,32.88 -23.96,33.78 -25.69,34.68 -27.43,35.61 -29.17,36.54"/>
    </edge>
    <edge id="curve_ahead" from="west_end" to="east_end" priority="-1" shape="-29.92,35.13 -28.18,34.20 -26.44,33.27 -24.70,32.36 -22.96,31.46 -21.21,30.57 -19.47,29.69 -17.72,28.83 -15.98,27.97 -14.23,27.13 -12.49,26.30 -10.74,25.48 -8.99,24.68 -7.24,23.88 -5.50,23.10 -3.75,22.33 -2.00,21.57 -0.25,20.82 1.50,20.09 3.26,19.36 5.01,18.65 6.76,17.95 8.51,17.26 10.27,16.59 12.02,15.92 13.78,15.27 15.53,14.63 17.29,14.00 19.05,13.38 20.80,12.77 22.56,12.18 24.32,11.60 26.08,11.02 27.84,10.47 29.60,9.92 31.36,9.38 33.12,8.86 34.88,8.35 36.64,7.85 38.41,7.36 40.17,6.88 41.93,6.42 43.70,5.96 45.47,5.52 47.23,5.09 49.00,4.68 50.76,4.27 52.53,3.88 54.30,3.49 56.07,3.12 57.84,2.76 59.61,2.42 61.38,2.08 63.15,1.76 64.92,1.45 66.70,1.15 68.47,0.86 70.24,0.58 72.02,0.32 73.79,0.06 75.57,-0.18 77.34,-0.41 79.12,-0.62 80.89,-0.83 82.67,-1.02 84.45,-1.21 86.23,-1.38 88.01,-1.53 89.79,-1.68 91.57,-1.82 93.35,-1.94 95.13,-2.05 96.91,-2.15 98.70,-2.24 100.48,-2.31 102.26,-2.38 104.05,-2.43 105.83,-2.47 107.62,-2.50 109.40,-2.52 111.19,-2.52 112.98,-2.52 114.77,-2.50 116.56,-2.47 118.34,-2.43 120.13,-2.38 121.92,-2.31 123.72,-2.23 125.51,-2.14 127.30,-2.04 129.09,-1.93 130.88,-1.81 132.68,-1.67 134.47,-1.52 136.27,-1.37 138.06,-1.19 139.86,-1.01 141.66,-0.82 143.45,-0.61 145.25,-0.39 147.05,-0.16 148.85,0.08 150.65,0.33 152.45,0.60 154.25,0.88 156.05,1.16 157.85,1.47 159.65,1.78 161.46,2.10 163.26,2.44 165.06,2.79 166.87,3.15 168.67,3.52 170.48,3.90 172.29,4.29 174.09,4.70 175.90,5.12 177.71,5.55 179.52,5.99 181.33,6.45 183.14,6.91 184.95,7.39 186.76,7.88 188.57,8.38 190.38,8.89 192.20,9.42 194.01,9.95 195.82,10.50 197.64,11.06 199.45,11.63 201.27,12.21 203.09,12.81 204.90,13.42 206.72,14.04 208.54,14.67 210.36,15.31 212.18,15.96 214.00,16.63 215.82,17.30 217.64,17.99 219.46,18.70 221.28,19.41 223.10,20.13 224.93,20.87 226.75,21.62 228.57,22.38 230.40,23.15 232.23,23.93 234.05,24.73 235.88,25.53 237.71,26.35 239.53,27.18 241.36,28.03 243.19,28.88 245.02,29.75 246.85,30.62 248.68,31.51 250.51,32.42 252.34,33.33 254.18,34.25 256.01,35.19">
        <lane id="curve_ahead_0" index="0" speed="13.89" length="298.67" shape="-33.69,28.07 -31.95,27.14 -30.18,26.20 -28.39,25.26 -26.61,24.34 -24.83,23.44 -23.04,22.53 -21.26,21.65 -19.48,20.78 -17.68,19.91 -15.91,19.07 -14.10,18.22 -12.32,17.40 -10.54,16.59 -8.75,15.79 -6.95,15.00 -5.17,14.22 -3.37,13.45 -1.57,12.70 0.22,11.96 2.02,11.23 3.81,10.51 5.62,9.80 7.42,9.12 9.20,8.43 11.02,7.76 12.81,7.11 14.61,6.46 16.40,5.83 18.21,5.20 20.04,4.59 21.82,4.00 23.63,3.40 25.45,2.83 27.23,2.28 29.05,1.72 30.87,1.18 32.67,0.66 34.48,0.15 36.29,-0.35 38.11,-0.85 39.91,-1.32 41.73,-1.79 43.56,-2.25 45.38,-2.69 47.19,-3.11 48.99,-3.53 50.81,-3.93 52.62,-4.33 54.45,-4.72 56.29,-5.09 58.10,-5.44 59.91,-5.78 61.75,-6.12 63.57,-6.43 65.39,-6.74 67.20,-7.04 69.04,-7.33 70.86,-7.60 72.67,-7.86 74.52,-8.11 76.36,-8.35 78.18,-8.56 79.99,-8.78 81.82,-8.97 83.65,-9.17 85.51,-9.35 87.34,-9.50 89.14,-9.65 90.99,-9.80 92.83,-9.92 94.66,-10.04 96.48,-10.14 98.34,-10.23 100.17,-10.30 101.99,-10.38 103.85,-10.43 105.67,-10.47 107.51,-10.50 109.36,-10.52 111.19,-10.52 113.02,-10.52 114.88,-10.50 116.72,-10.47 118.54,-10.43 120.40,-10.38 122.25,-10.30 124.10,-10.22 125.93,-10.13 127.77,-10.03 129.60,-9.91 131.46,-9.79 133.32,-9.64 135.14,-9.49 137.00,-9.34 138.86,-9.15 140.68,-8.97 142.55,-8.77 144.40,-8.55 146.24,-8.33 148.09,-8.09 149.93,-7.85 151.79,-7.59 153.66,-7.31 155.48,-7.02 157.34,-6.73 159.21,-6.41 161.03,-6.10 162.90,-5.77 164.77,-5.42 166.60,-5.06 168.46,-4.69 170.30,-4.31 172.14,-3.92 174.02,-3.52 175.88,-3.10 177.73,-2.67 179.58,-2.23 181.45,-1.77 183.30,-1.30 185.15,-0.83 187.02,-0.34 188.87,0.16 190.72,0.67 192.58,1.20 194.44,1.74 196.30,2.28 198.16,2.85 200.02,3.42 201.87,4.00 203.74,4.60 205.62,5.22 207.47,5.84 209.32,6.47 211.18,7.12 213.03,7.77 214.91,8.44 216.76,9.12 218.62,9.81 220.51,10.52 222.37,11.25 224.21,11.96 226.07,12.70 227.95,13.46 229.82,14.23 231.66,15.00 233.52,15.78 235.41,16.59 237.26,17.40 239.12,18.21 241.01,19.06 242.87,19.91 244.73,20.77 246.59,21.64 248.45,22.52 250.32,23.41 252.21,24.33 254.07,25.26 255.91,26.17 257.80,27.11 259.67,28.07"/>
        <lane id="curve_ahead_1" index="1" speed="13.89" length="298.67" shape="-32.18,30.90 -30.44,29.97 -28.68,29.03 -26.91,28.10 -25.15,27.19 -23.38,26.29 -21.61,25.39 -19.84,24.52 -18.08,23.65 -16.30,22.80 -14.54,21.96 -12.76,21.12 -10.99,20.31 -9.22,19.51 -7.45,18.71 -5.67,17.93 -3.90,17.16 -2.12,16.40 -0.34,15.66 1.44,14.92 3.22,14.20 4.99,13.49 6.78,12.78 8.56,12.11 10.33,11.43 12.12,10.76 13.90,10.12 15.68,9.48 17.46,8.85 19.25,8.23 21.05,7.63 22.82,7.04 24.61,6.45 26.41,5.89 28.18,5.33 29.98,4.78 31.77,4.25 33.56,3.74 35.34,3.23 37.14,2.73 38.93,2.24 40.72,1.78 42.52,1.31 44.32,0.86 46.12,0.42 47.91,0.00 49.70,-0.41 51.50,-0.81 53.29,-1.20 55.10,-1.58 56.91,-1.95 58.70,-2.29 60.50,-2.64 62.31,-2.97 64.11,-3.28 65.91,-3.59 67.71,-3.88 69.52,-4.17 71.32,-4.43 73.12,-4.69 74.94,-4.94 76.75,-5.17 78.56,-5.39 80.35,-5.60 82.16,-5.79 83.97,-5.99 85.80,-6.16 87.61,-6.31 89.40,-6.46 91.22,-6.61 93.04,-6.73 94.85,-6.84 96.65,-6.94 98.49,-7.04 100.29,-7.11 102.10,-7.18 103.93,-7.23 105.74,-7.27 107.55,-7.30 109.37,-7.32 111.19,-7.32 113.01,-7.32 114.84,-7.30 116.65,-7.27 118.46,-7.23 120.29,-7.18 122.12,-7.11 123.95,-7.02 125.76,-6.93 127.58,-6.83 129.40,-6.72 131.23,-6.60 133.07,-6.45 134.87,-6.30 136.71,-6.15 138.54,-5.97 140.35,-5.78 142.19,-5.59 144.02,-5.38 145.85,-5.15 147.67,-4.92 149.50,-4.68 151.34,-4.42 153.17,-4.14 154.99,-3.86 156.83,-3.58 158.66,-3.26 160.48,-2.95 162.32,-2.62 164.16,-2.27 165.99,-1.92 167.82,-1.55 169.65,-1.18 171.48,-0.79 173.33,-0.40 175.17,0.02 177.00,0.45 178.83,0.88 180.68,1.33 182.51,1.80 184.35,2.26 186.19,2.75 188.03,3.25 189.86,3.76 191.70,4.28 193.55,4.81 195.38,5.35 197.22,5.91 199.07,6.48 200.90,7.05 202.75,7.64 204.61,8.26 206.44,8.87 208.28,9.50 210.12,10.14 211.96,10.79 213.82,11.45 215.66,12.13 217.50,12.80 219.36,13.51 221.20,14.23 223.04,14.94 224.88,15.67 226.74,16.43 228.59,17.19 230.43,17.95 232.27,18.73 234.14,19.52 235.98,20.33 237.82,21.14 239.69,21.98 241.54,22.82 243.38,23.68 245.23,24.54 247.08,25.41 248.93,26.29 250.80,27.20 252.65,28.12 254.48,29.03 256.35,29.97 258.20,30.92"/>
        <lane id="curve_ahead_2" index="2" speed="13.89" length="298.67" shape="-30.67,33.72 -28.93,32.79 -27.19,31.86 -25.44,30.94 -23.69,30.04 -21.93,29.14 -20.18,28.26 -18.43,27.39 -16.68,26.53 -14.92,25.69 -13.17,24.85 -11.41,24.03 -9.66,23.22 -7.90,22.42 -6.15,21.64 -4.39,20.86 -2.63,20.10 -0.87,19.35 0.89,18.61 2.65,17.88 4.41,17.17 6.17,16.46 7.93,15.77 9.70,15.10 11.46,14.42 13.23,13.77 14.99,13.13 16.75,12.49 18.52,11.87 20.28,11.26 22.06,10.66 23.82,10.08 25.59,9.50 27.36,8.94 29.13,8.39 30.90,7.85 32.67,7.32 34.44,6.81 36.21,6.31 37.99,5.82 39.76,5.33 41.53,4.87 43.31,4.41 45.09,3.97 46.86,3.53 48.64,3.12 50.41,2.71 52.19,2.32 53.96,1.93 55.75,1.55 57.53,1.19 59.31,0.85 61.09,0.51 62.87,0.18 64.65,-0.13 66.44,-0.43 68.22,-0.72 70.00,-1.00 71.79,-1.26 73.57,-1.52 75.36,-1.77 77.14,-2.00 78.93,-2.21 80.71,-2.42 82.50,-2.61 84.29,-2.80 86.09,-2.97 87.88,-3.12 89.66,-3.27 91.45,-3.42 93.25,-3.54 95.04,-3.65 96.82,-3.75 98.63,-3.84 100.42,-3.91 102.21,-3.98 104.01,-4.03 105.80,-4.07 107.60,-4.10 109.39,-4.12 111.19,-4.12 112.99,-4.12 114.79,-4.10 116.59,-4.07 118.38,-4.03 120.18,-3.98 121.99,-3.91 123.80,-3.83 125.59,-3.74 127.39,-3.64 129.19,-3.53 131.00,-3.41 132.81,-3.26 134.60,-3.11 136.42,-2.96 138.22,-2.78 140.02,-2.60 141.84,-2.41 143.64,-2.20 145.45,-1.98 147.26,-1.75 149.07,-1.51 150.88,-1.25 152.69,-0.98 154.50,-0.70 156.31,-0.42 158.12,-0.11 159.93,0.20 161.75,0.53 163.56,0.87 165.37,1.22 167.19,1.58 169.00,1.95 170.81,2.34 172.64,2.73 174.45,3.14 176.27,3.56 178.08,3.99 179.91,4.44 181.72,4.90 183.54,5.36 185.36,5.84 187.18,6.34 189.00,6.84 190.82,7.35 192.65,7.88 194.47,8.42 196.29,8.97 198.12,9.53 199.93,10.10 201.76,10.69 203.60,11.29 205.41,11.90 207.24,12.53 209.07,13.16 210.89,13.80 212.73,14.46 214.55,15.13 216.38,15.80 218.21,16.50 220.04,17.21 221.87,17.92 223.69,18.64 225.53,19.39 227.36,20.14 229.19,20.90 231.02,21.68 232.87,22.46 234.69,23.26 236.53,24.07 238.37,24.89 240.20,25.73 242.03,26.58 243.87,27.43 245.71,28.30 247.54,29.18 249.39,30.07 251.22,30.99 253.05,31.90 254.90,32.82 256.74,33.77"/>
    </edge>

    <junction id="east_end" type="dead_end" x="256.01" y="35.19" incLanes="curve_ahead_0 curve_ahead_1 curve_ahead_2" intLanes="" shape="256.01,35.19 260.40,26.65 256.01,35.19"/>
    <junction id="west_end" type="dead_end" x="-29.92" y="35.13" incLanes="-curve_ahead_0" intLanes="" shape="-29.92,35.13 -28.41,37.95 -29.92,35.13"/>

</net>
