<?xml version="1.0" encoding="UTF-8"?>

<!-- generated on Thu 22 Apr 2021 12:04:50 AM EDT by Eclipse SUMO netedit Version 1.9.0
<configuration xmlns:xsi="http://www.w3.org/2001/XMLSchema-instance" xsi:noNamespaceSchemaLocation="http://sumo.dlr.de/xsd/netconvertConfiguration.xsd">

    <input>
        <sumo-net-file value="/home/dev/Desktop/BM_Scenarios/basic/curve_ahead_wide_24e_24w.net.xml"/>
    </input>

    <output>
        <output-file value="/home/dev/Desktop/BM_Scenarios/basic/curve_ahead_wide_24e_24w.net.xml"/>
    </output>

    <processing>
        <geometry.min-radius.fix.railways value="false"/>
        <geometry.max-grade.fix value="false"/>
        <offset.disable-normalization value="true"/>
        <lefthand value="false"/>
    </processing>

    <junctions>
        <no-internal-links value="true"/>
        <no-turnarounds value="true"/>
        <junctions.corner-detail value="5"/>
        <junctions.limit-turn-speed value="5.5"/>
        <rectangular-lane-cut value="false"/>
    </junctions>

    <pedestrian>
        <walkingareas value="false"/>
    </pedestrian>

    <report>
        <aggregate-warnings value="5"/>
    </report>

</configuration>
-->

<net version="1.9" junctionCornerDetail="5" limitTurnSpeed="5.50" xmlns:xsi="http://www.w3.org/2001/XMLSchema-instance" xsi:noNamespaceSchemaLocation="http://sumo.dlr.de/xsd/net_file.xsd">

    <location netOffset="0.00,0.00" convBoundary="-6.33,-20.91,249.57,65.94" origBoundary="-10000000000.00,-10000000000.00,10000000000.00,10000000000.00" projParameter="!"/>

    <edge id="-curve_ahead" from="east_end" to="west_end" priority="-1" shape="249.57,65.94 248.35,64.32 247.13,62.72 244.69,59.56 242.25,56.47 239.82,53.43 237.38,50.46 234.95,47.55 232.52,44.69 230.08,41.90 227.65,39.17 225.22,36.50 222.79,33.89 220.36,31.34 217.94,28.85 215.51,26.43 213.08,24.06 210.66,21.75 208.23,19.51 205.81,17.32 203.39,15.20 200.97,13.13 198.55,11.13 196.13,9.19 193.71,7.31 191.29,5.49 188.87,3.73 186.46,2.03 184.04,0.39 181.63,-1.19 179.21,-2.71 176.80,-4.16 174.39,-5.56 171.98,-6.89 169.57,-8.17 167.16,-9.38 164.75,-10.54 162.34,-11.63 159.93,-12.66 157.53,-13.63 155.12,-14.54 152.72,-15.39 150.32,-16.18 147.92,-16.91 145.51,-17.58 143.11,-18.18 140.71,-18.73 138.32,-19.21 135.92,-19.64 133.52,-20.00 131.12,-20.31 128.73,-20.55 126.34,-20.73 123.94,-20.85 121.55,-20.91 119.16,-20.91 116.77,-20.85 114.38,-20.73 111.99,-20.55 109.60,-20.31 107.21,-20.00 104.83,-19.64 102.44,-19.21 100.06,-18.73 97.67,-18.18 95.29,-17.58 92.91,-16.91 90.53,-16.18 88.15,-15.39 85.77,-14.54 83.39,-13.63 81.01,-12.66 78.64,-11.63 76.26,-10.54 73.89,-9.38 71.51,-8.17 69.14,-6.89 66.77,-5.56 64.40,-4.16 62.02,-2.71 59.66,-1.19 57.29,0.39 54.92,2.03 52.55,3.73 50.19,5.49 47.82,7.31 45.46,9.19 43.09,11.13 40.73,13.13 38.37,15.20 36.01,17.32 33.65,19.51 31.29,21.75 28.93,24.06 26.58,26.43 24.22,28.85 21.86,31.34 19.51,33.89 17.16,36.50 14.80,39.17 12.45,41.90 10.10,44.69 7.75,47.55 5.40,50.46 3.05,53.43 0.70,56.47 -1.64,59.56 -3.99,62.72 -6.33,65.94">
        <lane id="-curve_ahead_0" index="0" speed="13.89" length="320.66" shape="189.50,111.18 188.41,109.74 187.52,108.56 185.42,105.84 183.37,103.25 181.39,100.77 179.46,98.43 177.43,96.00 175.56,93.79 173.69,91.65 171.75,89.48 169.89,87.43 168.05,85.45 166.17,83.48 164.44,81.70 162.72,79.99 160.86,78.17 159.21,76.59 157.51,75.03 155.80,73.48 154.17,72.05 152.57,70.69 151.08,69.45 149.54,68.22 148.04,67.05 146.57,65.95 145.08,64.86 143.69,63.88 142.33,62.96 141.01,62.10 139.82,61.35 138.53,60.57 137.33,59.87 136.17,59.24 135.06,58.64 133.98,58.10 132.94,57.60 132.06,57.21 131.06,56.78 130.15,56.41 129.28,56.08 128.41,55.77 127.62,55.51 126.90,55.29 126.31,55.13 125.59,54.95 124.90,54.79 124.28,54.67 123.71,54.56 123.12,54.48 122.54,54.40 122.15,54.36 121.64,54.32 121.12,54.30 120.61,54.28 120.10,54.28 119.60,54.30 119.09,54.32 118.57,54.36 118.20,54.40 117.67,54.47 117.12,54.55 116.53,54.66 115.93,54.78 115.29,54.93 114.68,55.08 114.13,55.23 113.41,55.46 112.65,55.71 111.85,55.99 111.01,56.31 110.19,56.65 109.29,57.04 108.45,57.42 107.46,57.91 106.42,58.43 105.41,58.98 104.30,59.60 103.09,60.32 101.95,61.01 100.88,61.71 99.55,62.59 98.24,63.50 96.95,64.42 95.57,65.45 94.15,66.54 92.71,67.69 91.22,68.91 89.84,70.08 88.29,71.44 86.72,72.85 85.11,74.34 83.48,75.89 81.93,77.40 80.20,79.15 78.43,80.97 76.80,82.69 75.10,84.53 73.28,86.56 71.47,88.60 69.71,90.65 67.91,92.78 66.06,95.04 64.14,97.41 62.29,99.76 60.42,102.16 58.51,104.70 56.60,107.26 54.50,110.15"/>
        <lane id="-curve_ahead_1" index="1" speed="13.89" length="320.66" shape="192.06,109.25 190.96,107.80 190.05,106.61 187.94,103.87 185.88,101.26 183.88,98.76 181.93,96.39 179.88,93.93 177.98,91.70 176.09,89.53 174.13,87.34 172.24,85.26 170.38,83.26 168.48,81.26 166.72,79.45 164.97,77.71 163.08,75.87 161.40,74.26 159.67,72.67 157.93,71.09 156.26,69.64 154.63,68.24 153.10,66.97 151.52,65.71 149.98,64.51 148.47,63.38 146.94,62.26 145.51,61.25 144.10,60.30 142.74,59.40 141.50,58.62 140.15,57.82 138.91,57.09 137.70,56.42 136.52,55.80 135.39,55.23 134.29,54.70 133.35,54.28 132.29,53.82 131.32,53.43 130.38,53.08 129.44,52.74 128.58,52.46 127.80,52.22 127.13,52.03 126.33,51.84 125.57,51.66 124.88,51.52 124.23,51.40 123.57,51.31 122.91,51.22 122.43,51.17 121.84,51.13 121.24,51.10 120.65,51.08 120.06,51.08 119.48,51.10 118.89,51.13 118.29,51.17 117.83,51.22 117.22,51.30 116.59,51.39 115.93,51.51 115.26,51.65 114.54,51.81 113.85,51.99 113.23,52.16 112.43,52.41 111.60,52.68 110.74,52.99 109.84,53.34 108.95,53.70 107.98,54.12 107.08,54.53 106.04,55.05 104.94,55.60 103.87,56.18 102.70,56.83 101.44,57.58 100.25,58.30 99.13,59.03 97.75,59.95 96.39,60.89 95.06,61.84 93.64,62.90 92.18,64.02 90.70,65.20 89.17,66.45 87.75,67.66 86.17,69.04 84.56,70.49 82.92,72.01 81.26,73.59 79.68,75.13 77.92,76.91 76.13,78.75 74.46,80.50 72.74,82.37 70.89,84.43 69.06,86.50 67.27,88.58 65.45,90.74 63.57,93.02 61.64,95.41 59.77,97.78 57.88,100.22 55.95,102.77 54.02,105.37 51.91,108.27"/>
        <lane id="-curve_ahead_2" index="2" speed="13.89" length="320.66" shape="194.61,107.33 193.52,105.87 192.59,104.66 190.46,101.90 188.38,99.27 186.37,96.74 184.39,94.34 182.33,91.87 180.41,89.61 178.49,87.42 176.51,85.19 174.60,83.09 172.71,81.06 170.79,79.05 168.99,77.20 167.22,75.43 165.31,73.57 163.59,71.93 161.83,70.31 160.06,68.70 158.36,67.22 156.69,65.79 155.12,64.49 153.51,63.20 151.93,61.97 150.38,60.80 148.80,59.66 147.33,58.62 145.88,57.64 144.47,56.71 143.17,55.90 141.78,55.06 140.48,54.30 139.22,53.61 137.99,52.96 136.80,52.36 135.65,51.80 134.64,51.35 133.52,50.87 132.48,50.45 131.48,50.07 130.48,49.71 129.55,49.41 128.69,49.15 127.95,48.94 127.08,48.73 126.25,48.53 125.48,48.38 124.75,48.25 124.01,48.14 123.27,48.04 122.71,47.99 122.04,47.94 121.36,47.90 120.69,47.88 120.02,47.88 119.36,47.90 118.69,47.93 118.01,47.99 117.46,48.04 116.78,48.13 116.07,48.24 115.33,48.37 114.58,48.52 113.79,48.70 113.03,48.89 112.32,49.09 111.46,49.36 110.56,49.66 109.63,49.99 108.66,50.36 107.71,50.75 106.68,51.20 105.71,51.64 104.61,52.18 103.45,52.77 102.33,53.38 101.11,54.06 99.80,54.84 98.55,55.59 97.37,56.35 95.95,57.30 94.55,58.27 93.17,59.26 91.71,60.35 90.21,61.50 88.69,62.71 87.12,63.99 85.66,65.23 84.04,66.65 82.40,68.13 80.73,69.68 79.04,71.28 77.42,72.86 75.64,74.67 73.82,76.53 72.13,78.32 70.37,80.22 68.50,82.30 66.65,84.39 64.83,86.50 62.99,88.69 61.09,91.00 59.14,93.42 57.25,95.81 55.34,98.28 53.39,100.85 51.44,103.47 49.33,106.39"/>
        <lane id="-curve_ahead_3" index="3" speed="13.89" length="320.66" shape="197.17,105.40 196.07,103.94 195.13,102.71 192.98,99.93 190.89,97.28 188.85,94.73 186.86,92.30 184.78,89.81 182.83,87.52 180.89,85.30 178.89,83.05 176.95,80.93 175.04,78.87 173.09,76.83 171.27,74.95 169.46,73.15 167.53,71.27 165.78,69.59 163.99,67.95 162.18,66.31 160.45,64.80 158.75,63.34 157.14,62.00 155.49,60.68 153.87,59.43 152.28,58.23 150.67,57.06 149.15,55.99 147.65,54.97 146.20,54.02 144.85,53.17 143.41,52.31 142.06,51.52 140.74,50.80 139.46,50.11 138.21,49.49 137.00,48.90 135.93,48.42 134.74,47.91 133.65,47.47 132.58,47.07 131.51,46.69 130.52,46.36 129.59,46.08 128.76,45.85 127.83,45.61 126.92,45.40 126.08,45.24 125.27,45.09 124.45,44.97 123.64,44.86 122.99,44.80 122.24,44.74 121.48,44.70 120.73,44.68 119.98,44.68 119.24,44.70 118.49,44.74 117.73,44.80 117.10,44.86 116.33,44.96 115.55,45.08 114.73,45.23 113.91,45.39 113.04,45.59 112.20,45.80 111.42,46.02 110.49,46.31 109.52,46.63 108.52,46.99 107.49,47.38 106.47,47.80 105.38,48.27 104.34,48.75 103.18,49.32 101.97,49.93 100.78,50.57 99.51,51.29 98.15,52.09 96.85,52.88 95.62,53.68 94.15,54.65 92.71,55.65 91.28,56.68 89.78,57.80 88.24,58.98 86.68,60.22 85.08,61.53 83.57,62.81 81.92,64.26 80.24,65.76 78.54,67.34 76.82,68.98 75.17,70.59 73.36,72.42 71.51,74.31 69.79,76.13 68.01,78.06 66.11,80.17 64.24,82.29 62.40,84.43 60.53,86.64 58.61,88.98 56.64,91.42 54.72,93.84 52.80,96.33 50.83,98.93 48.87,101.57 46.74,104.50"/>
        <lane id="-curve_ahead_4" index="4" speed="13.89" length="320.66" shape="199.72,103.48 198.62,102.01 197.66,100.76 195.51,97.96 193.39,95.29 191.34,92.72 189.32,90.26 187.22,87.75 185.25,85.43 183.29,83.18 181.27,80.91 179.31,78.76 177.37,76.67 175.40,74.61 173.55,72.70 171.71,70.87 169.75,68.96 167.97,67.26 166.15,65.58 164.31,63.92 162.55,62.38 160.81,60.89 159.16,59.52 157.47,58.17 155.81,56.88 154.18,55.66 152.53,54.46 150.97,53.35 149.43,52.31 147.93,51.32 146.52,50.44 145.04,49.55 143.64,48.74 142.27,47.98 140.93,47.27 139.63,46.62 138.36,46.00 137.22,45.49 135.97,44.96 134.81,44.49 133.68,44.06 132.55,43.66 131.48,43.31 130.48,43.00 129.58,42.75 128.57,42.50 127.59,42.28 126.67,42.09 125.79,41.93 124.89,41.80 124.00,41.68 123.27,41.61 122.44,41.55 121.60,41.51 120.77,41.49 119.94,41.49 119.12,41.51 118.29,41.55 117.45,41.61 116.73,41.68 115.89,41.79 115.03,41.92 114.13,42.08 113.23,42.26 112.29,42.48 111.38,42.71 110.52,42.95 109.51,43.26 108.48,43.61 107.41,43.99 106.31,44.41 105.22,44.85 104.07,45.35 102.97,45.85 101.75,46.46 100.48,47.10 99.24,47.77 97.91,48.51 96.50,49.35 95.15,50.17 93.86,51.00 92.35,52.01 90.86,53.04 89.39,54.09 87.85,55.25 86.27,56.46 84.67,57.74 83.03,59.08 81.48,60.39 79.80,61.87 78.09,63.40 76.35,65.01 74.60,66.68 72.91,68.32 71.07,70.18 69.21,72.09 67.45,73.95 65.64,75.91 63.73,78.04 61.83,80.19 59.96,82.35 58.07,84.60 56.13,86.96 54.14,89.42 52.20,91.87 50.26,94.39 48.27,97.01 46.29,99.68 44.15,102.62"/>
        <lane id="-curve_ahead_5" index="5" speed="13.89" length="320.66" shape="202.28,101.55 201.17,100.07 200.20,98.81 198.03,95.99 195.90,93.29 193.82,90.70 191.79,88.22 189.67,85.69 187.68,83.34 185.69,81.07 183.65,78.77 181.66,76.59 179.70,74.48 177.70,72.39 175.82,70.45 173.95,68.59 171.97,66.66 170.16,64.92 168.30,63.22 166.44,61.53 164.64,59.96 162.87,58.44 161.18,57.04 159.45,55.66 157.76,54.34 156.09,53.08 154.39,51.86 152.79,50.72 151.20,49.65 149.65,48.63 148.20,47.72 146.67,46.80 145.21,45.95 143.79,45.17 142.40,44.43 141.04,43.75 139.71,43.10 138.51,42.56 137.20,42.00 135.98,41.51 134.78,41.06 133.58,40.63 132.45,40.26 131.38,39.93 130.40,39.66 129.32,39.39 128.26,39.15 127.27,38.95 126.31,38.77 125.34,38.63 124.37,38.50 123.55,38.42 122.64,38.35 121.72,38.31 120.81,38.29 119.90,38.29 119.00,38.31 118.09,38.35 117.17,38.42 116.37,38.50 115.44,38.62 114.50,38.76 113.53,38.94 112.56,39.14 111.54,39.37 110.55,39.62 109.61,39.88 108.54,40.21 107.43,40.58 106.30,40.99 105.14,41.43 103.98,41.90 102.77,42.43 101.60,42.96 100.32,43.59 99.00,44.26 97.69,44.97 96.32,45.74 94.86,46.60 93.45,47.46 92.11,48.32 90.56,49.36 89.02,50.42 87.50,51.51 85.92,52.69 84.29,53.94 82.66,55.25 80.98,56.62 79.39,57.96 77.67,59.47 75.93,61.04 74.16,62.68 72.38,64.37 70.66,66.05 68.79,67.94 66.90,69.88 65.11,71.76 63.28,73.75 61.34,75.91 59.41,78.08 57.52,80.28 55.61,82.55 53.65,84.94 51.64,87.42 49.68,89.90 47.72,92.44 45.71,95.09 43.71,97.78 41.56,100.74"/>
        <lane id="-curve_ahead_6" index="6" speed="13.89" length="320.66" shape="204.84,99.63 203.72,98.14 202.74,96.85 200.55,94.02 198.40,91.30 196.31,88.69 194.25,86.18 192.12,83.63 190.10,81.25 188.09,78.95 186.03,76.63 184.02,74.43 182.02,72.29 180.01,70.17 178.10,68.20 176.20,66.31 174.19,64.36 172.35,62.59 170.46,60.86 168.57,59.14 166.74,57.54 164.93,55.99 163.20,54.56 161.44,53.15 159.70,51.80 157.99,50.51 156.26,49.25 154.61,48.09 152.98,46.98 151.38,45.94 149.88,44.99 148.30,44.04 146.79,43.17 145.31,42.35 143.87,41.58 142.45,40.87 141.06,40.20 139.79,39.63 138.43,39.05 137.14,38.53 135.88,38.05 134.61,37.60 133.41,37.21 132.27,36.86 131.21,36.56 130.06,36.28 128.94,36.02 127.87,35.81 126.83,35.62 125.78,35.46 124.73,35.32 123.83,35.24 122.84,35.16 121.84,35.11 120.85,35.09 119.86,35.09 118.88,35.11 117.89,35.16 116.89,35.24 116.00,35.32 115.00,35.46 113.98,35.61 112.93,35.80 111.88,36.01 110.79,36.26 109.73,36.53 108.71,36.81 107.56,37.17 106.39,37.56 105.19,37.98 103.96,38.45 102.74,38.95 101.46,39.51 100.23,40.07 98.89,40.73 97.51,41.43 96.15,42.16 94.72,42.97 93.21,43.86 91.75,44.74 90.36,45.65 88.76,46.71 87.18,47.81 85.61,48.93 83.99,50.14 82.32,51.42 80.64,52.76 78.93,54.16 77.30,55.54 75.55,57.08 73.77,58.67 71.97,60.34 70.16,62.07 68.40,63.78 66.51,65.69 64.59,67.66 62.77,69.58 60.91,71.60 58.95,73.78 57.00,75.98 55.09,78.20 53.15,80.50 51.17,82.92 49.14,85.42 47.16,87.93 45.18,90.50 43.15,93.17 41.13,95.89 38.97,98.86"/>
        <lane id="-curve_ahead_7" index="7" speed="13.89" length="320.66" shape="207.39,97.70 206.27,96.21 205.27,94.90 203.07,92.05 200.91,89.31 198.80,86.67 196.72,84.14 194.57,81.56 192.53,79.16 190.49,76.83 188.40,74.49 186.37,72.26 184.35,70.09 182.31,67.95 180.38,65.96 178.45,64.04 176.42,62.06 174.53,60.26 172.62,58.50 170.70,56.75 168.83,55.12 166.99,53.54 165.22,52.08 163.42,50.64 161.64,49.26 159.89,47.94 158.12,46.65 156.43,45.46 154.75,44.32 153.11,43.25 151.55,42.27 149.93,41.29 148.37,40.38 146.84,39.54 145.34,38.74 143.86,38.00 142.42,37.30 141.08,36.70 139.66,36.09 138.31,35.55 136.98,35.04 135.65,34.57 134.38,34.16 133.16,33.79 132.03,33.47 130.81,33.17 129.61,32.89 128.47,32.66 127.35,32.46 126.22,32.29 125.10,32.15 124.11,32.05 123.04,31.97 121.96,31.91 120.89,31.89 119.82,31.89 118.76,31.91 117.69,31.97 116.61,32.05 115.64,32.14 114.55,32.29 113.46,32.45 112.33,32.65 111.20,32.88 110.04,33.15 108.90,33.44 107.81,33.74 106.59,34.12 105.35,34.53 104.08,34.98 102.79,35.48 101.50,36.00 100.16,36.59 98.86,37.18 97.46,37.87 96.02,38.59 94.61,39.36 93.12,40.19 91.57,41.12 90.05,42.03 88.60,42.97 86.96,44.07 85.33,45.19 83.72,46.35 82.05,47.59 80.35,48.90 78.63,50.27 76.88,51.70 75.21,53.12 73.42,54.69 71.61,56.31 69.78,58.01 67.93,59.76 66.15,61.51 64.23,63.45 62.28,65.44 60.44,67.39 58.54,69.44 56.56,71.65 54.59,73.88 52.65,76.13 50.69,78.46 48.69,80.90 46.64,83.43 44.64,85.96 42.63,88.55 40.59,91.25 38.55,93.99 36.38,96.98"/>
        <lane id="-curve_ahead_8" index="8" speed="13.89" length="320.66" shape="209.95,95.78 208.82,94.28 207.81,92.95 205.60,90.09 203.41,87.32 201.28,84.66 199.18,82.10 197.01,79.50 194.95,77.07 192.89,74.71 190.78,72.35 188.73,70.09 186.68,67.90 184.62,65.73 182.65,63.71 180.69,61.76 178.64,59.75 176.72,57.92 174.78,56.13 172.82,54.36 170.93,52.70 169.05,51.09 167.24,49.60 165.40,48.12 163.59,46.71 161.79,45.37 159.99,44.05 158.25,42.83 156.53,41.66 154.84,40.55 153.23,39.54 151.56,38.53 149.95,37.60 148.36,36.73 146.81,35.90 145.27,35.13 143.77,34.40 142.37,33.77 140.89,33.14 139.47,32.57 138.08,32.04 136.68,31.55 135.35,31.11 134.06,30.71 132.85,30.38 131.55,30.05 130.28,29.76 129.06,29.52 127.87,29.30 126.66,29.12 125.46,28.97 124.39,28.86 123.24,28.77 122.08,28.72 120.93,28.69 119.78,28.69 118.64,28.71 117.49,28.77 116.33,28.86 115.27,28.96 114.11,29.12 112.93,29.29 111.73,29.51 110.53,29.75 109.29,30.04 108.08,30.34 106.91,30.67 105.62,31.07 104.31,31.50 102.97,31.98 101.61,32.50 100.26,33.05 98.86,33.66 97.49,34.29 96.03,35.00 94.54,35.76 93.06,36.56 91.52,37.42 89.92,38.37 88.36,39.32 86.85,40.29 85.16,41.42 83.49,42.58 81.83,43.76 80.12,45.04 78.38,46.38 76.62,47.78 74.84,49.24 73.12,50.69 71.30,52.29 69.46,53.95 67.59,55.68 65.71,57.46 63.89,59.24 61.95,61.21 59.98,63.22 58.10,65.21 56.18,67.29 54.17,69.52 52.18,71.77 50.22,74.06 48.23,76.41 46.21,78.88 44.14,81.43 42.12,83.98 40.09,86.61 38.03,89.33 35.97,92.10 33.79,95.10"/>
        <lane id="-curve_ahead_9" index="9" speed="13.89" length="320.66" shape="212.50,93.85 211.37,92.34 210.35,91.00 208.12,88.12 205.92,85.33 203.77,82.64 201.65,80.06 199.46,77.44 197.37,74.98 195.29,72.60 193.16,70.21 191.08,67.92 189.01,65.70 186.93,63.51 184.93,61.46 182.94,59.48 180.86,57.45 178.91,55.59 176.94,53.77 174.95,51.97 173.02,50.28 171.11,48.64 169.26,47.11 167.38,45.61 165.53,44.17 163.70,42.79 161.85,41.45 160.07,40.19 158.30,39.00 156.57,37.86 154.91,36.82 153.18,35.78 151.52,34.81 149.89,33.91 148.27,33.05 146.69,32.26 145.12,31.50 143.66,30.84 142.12,30.18 140.64,29.59 139.18,29.03 137.72,28.52 136.31,28.06 134.95,27.64 133.66,27.28 132.30,26.94 130.96,26.63 129.66,26.37 128.38,26.14 127.11,25.95 125.83,25.79 124.67,25.67 123.44,25.58 122.20,25.52 120.97,25.49 119.74,25.49 118.52,25.52 117.29,25.58 116.05,25.67 114.90,25.79 113.66,25.95 112.41,26.14 111.14,26.37 109.85,26.62 108.54,26.93 107.25,27.25 106.00,27.60 104.64,28.02 103.26,28.48 101.86,28.98 100.43,29.53 99.02,30.10 97.55,30.74 96.12,31.39 94.61,32.14 93.05,32.93 91.52,33.76 89.93,34.65 88.27,35.63 86.66,36.61 85.09,37.62 83.36,38.77 81.65,39.96 79.94,41.18 78.19,42.49 76.41,43.86 74.61,45.29 72.79,46.78 71.03,48.27 69.17,49.90 67.30,51.58 65.40,53.34 63.49,55.16 61.63,56.97 59.66,58.96 57.67,61.01 55.76,63.02 53.81,65.14 51.79,67.39 49.77,69.67 47.78,71.98 45.77,74.36 43.73,76.85 41.64,79.43 39.60,82.01 37.55,84.66 35.47,87.41 33.40,90.20 31.21,93.22"/>
        <lane id="-curve_ahead_10" index="10" speed="13.89" length="320.66" shape="215.06,91.93 213.92,90.41 212.88,89.05 210.64,86.15 208.43,83.34 206.26,80.63 204.11,78.02 201.91,75.38 199.80,72.89 197.69,70.48 195.54,68.07 193.43,65.76 191.34,63.51 189.23,61.29 187.21,59.21 185.19,57.20 183.08,55.15 181.10,53.26 179.10,51.41 177.08,49.58 175.11,47.86 173.17,46.19 171.28,44.63 169.37,43.10 167.47,41.63 165.60,40.22 163.71,38.85 161.89,37.56 160.08,36.33 158.30,35.17 156.58,34.09 154.81,33.03 153.10,32.03 151.41,31.10 149.74,30.21 148.10,29.39 146.48,28.61 144.95,27.91 143.34,27.23 141.80,26.61 140.28,26.03 138.75,25.49 137.28,25.00 135.85,24.57 134.48,24.19 133.04,23.83 131.63,23.50 130.26,23.23 128.90,22.99 127.55,22.79 126.19,22.61 124.95,22.48 123.64,22.39 122.32,22.32 121.01,22.29 119.70,22.29 118.40,22.32 117.09,22.39 115.77,22.48 114.54,22.61 113.22,22.78 111.89,22.98 110.54,23.22 109.18,23.50 107.79,23.82 106.43,24.16 105.10,24.53 103.67,24.97 102.22,25.45 100.75,25.98 99.26,26.55 97.77,27.15 96.25,27.82 94.75,28.50 93.18,29.28 91.57,30.09 89.98,30.95 88.33,31.87 86.63,32.88 84.96,33.90 83.34,34.94 81.57,36.12 79.80,37.34 78.06,38.60 76.26,39.94 74.44,41.34 72.60,42.80 70.74,44.32 68.94,45.85 67.05,47.51 65.14,49.22 63.21,51.01 61.27,52.85 59.38,54.70 57.38,56.72 55.36,58.79 53.42,60.84 51.45,62.98 49.40,65.26 47.36,67.57 45.34,69.91 43.31,72.32 41.24,74.83 39.14,77.43 37.08,80.04 35.01,82.72 32.91,85.49 30.82,88.31 28.62,91.34"/>
        <lane id="-curve_ahead_11" index="11" speed="13.89" length="320.66" shape="217.62,90.00 216.47,88.48 215.42,87.10 213.16,84.18 210.93,81.35 208.74,78.61 206.57,75.97 204.36,73.32 202.22,70.81 200.08,68.36 197.92,65.93 195.79,63.59 193.67,61.32 191.54,59.08 189.48,56.96 187.43,54.92 185.30,52.84 183.29,50.92 181.25,49.04 179.21,47.19 177.21,45.44 175.23,43.74 173.30,42.15 171.35,40.59 169.42,39.09 167.50,37.65 165.58,36.25 163.71,34.93 161.85,33.67 160.02,32.47 158.26,31.36 156.44,30.27 154.68,29.25 152.93,28.28 151.21,27.37 149.51,26.52 147.83,25.71 146.24,24.98 144.57,24.27 142.97,23.63 141.38,23.02 139.79,22.46 138.24,21.95 136.74,21.50 135.30,21.09 133.79,20.72 132.30,20.38 130.85,20.09 129.42,19.83 127.99,19.62 126.56,19.43 125.23,19.30 123.84,19.19 122.44,19.12 121.05,19.09 119.66,19.09 118.28,19.12 116.89,19.19 115.49,19.30 114.17,19.43 112.77,19.61 111.37,19.82 109.94,20.08 108.50,20.37 107.04,20.71 105.60,21.07 104.20,21.46 102.70,21.92 101.18,22.43 99.64,22.98 98.08,23.57 96.53,24.21 94.94,24.90 93.38,25.61 91.75,26.41 90.08,27.26 88.43,28.15 86.73,29.10 84.98,30.14 83.26,31.19 81.59,32.27 79.77,33.48 77.96,34.73 76.17,36.01 74.33,37.38 72.47,38.82 70.59,40.31 68.69,41.86 66.85,43.42 64.92,45.11 62.98,46.86 61.02,48.68 59.05,50.55 57.12,52.43 55.10,54.48 53.06,56.57 51.08,58.65 49.08,60.83 47.01,63.13 44.94,65.46 42.91,67.83 40.85,70.27 38.76,72.81 36.65,75.43 34.56,78.07 32.47,80.78 30.35,83.57 28.24,86.41 26.03,89.45"/>
        <lane id="-curve_ahead_12" index="12" speed="13.89" length="320.66" shape="220.17,88.08 219.02,86.55 217.96,85.15 215.68,82.21 213.44,79.36 211.23,76.60 209.04,73.93 206.80,71.26 204.65,68.72 202.48,66.25 200.30,63.79 198.14,61.42 196.00,59.12 193.84,56.86 191.76,54.71 189.68,52.64 187.53,50.54 185.48,48.59 183.41,46.68 181.34,44.80 179.30,43.02 177.29,41.30 175.32,39.67 173.33,38.08 171.36,36.55 169.41,35.08 167.44,33.65 165.53,32.30 163.63,31.01 161.75,29.78 159.93,28.64 158.07,27.52 156.25,26.46 154.46,25.47 152.68,24.52 150.92,23.64 149.18,22.81 147.52,22.06 145.80,21.32 144.13,20.64 142.47,20.02 140.82,19.43 139.21,18.90 137.64,18.42 136.12,18.00 134.54,17.61 132.97,17.25 131.45,16.94 129.94,16.67 128.43,16.45 126.92,16.25 125.51,16.11 124.04,16.00 122.56,15.92 121.09,15.89 119.62,15.89 118.15,15.92 116.69,16.00 115.21,16.11 113.81,16.25 112.33,16.44 110.84,16.67 109.34,16.94 107.83,17.24 106.29,17.59 104.78,17.98 103.29,18.39 101.72,18.88 100.14,19.40 98.53,19.98 96.91,20.60 95.29,21.26 93.64,21.97 92.01,22.72 90.32,23.55 88.60,24.42 86.89,25.35 85.14,26.33 83.33,27.40 81.56,28.47 79.83,29.59 77.97,30.83 76.12,32.11 74.28,33.43 72.40,34.83 70.49,36.30 68.58,37.82 66.64,39.41 64.76,41.00 62.80,42.72 60.82,44.50 58.83,46.34 56.83,48.24 54.87,50.16 52.82,52.23 50.75,54.35 48.75,56.47 46.72,58.67 44.62,61.00 42.53,63.36 40.47,65.76 38.39,68.22 36.28,70.79 34.15,73.44 32.04,76.10 29.93,78.83 27.79,81.65 25.66,84.52 23.44,87.57"/>
        <lane id="-curve_ahead_13" index="13" speed="13.89" length="320.66" shape="222.73,86.15 221.57,84.61 220.49,83.20 218.21,80.24 215.94,77.37 213.71,74.58 211.50,71.89 209.25,69.20 207.07,66.63 204.88,64.13 202.68,61.65 200.50,59.26 198.33,56.93 196.15,54.64 194.04,52.46 191.92,50.36 189.75,48.24 187.67,46.25 185.57,44.32 183.46,42.41 181.40,40.60 179.35,38.85 177.34,37.19 175.31,35.56 173.30,34.00 171.31,32.50 169.30,31.04 167.35,29.67 165.40,28.35 163.48,27.09 161.61,25.91 159.70,24.76 157.83,23.68 155.98,22.66 154.15,21.68 152.33,20.77 150.54,19.91 148.81,19.13 147.03,18.36 145.30,17.66 143.57,17.01 141.86,16.41 140.18,15.85 138.53,15.35 136.93,14.91 135.28,14.50 133.65,14.12 132.05,13.80 130.46,13.51 128.88,13.28 127.29,13.07 125.79,12.92 124.24,12.80 122.68,12.73 121.13,12.69 119.58,12.69 118.03,12.73 116.48,12.80 114.93,12.92 113.44,13.07 111.88,13.27 110.32,13.51 108.74,13.79 107.15,14.11 105.54,14.48 103.95,14.88 102.39,15.32 100.75,15.83 99.10,16.38 97.42,16.97 95.73,17.62 94.05,18.31 92.33,19.05 90.64,19.83 88.89,20.69 87.11,21.59 85.35,22.54 83.54,23.56 81.69,24.65 79.86,25.76 78.08,26.91 76.17,28.18 74.27,29.50 72.39,30.85 70.47,32.28 68.52,33.77 66.57,35.33 64.59,36.95 62.67,38.58 60.68,40.33 58.67,42.13 56.64,44.01 54.61,45.94 52.61,47.89 50.54,49.99 48.44,52.14 46.41,54.28 44.35,56.52 42.23,58.87 40.12,61.26 38.03,63.68 35.93,66.18 33.80,68.77 31.65,71.44 29.52,74.13 27.39,76.89 25.23,79.73 23.08,82.62 20.85,85.69"/>
        <lane id="-curve_ahead_14" index="14" speed="13.89" length="320.66" shape="225.29,84.23 224.12,82.68 223.03,81.25 220.73,78.27 218.45,75.38 216.20,72.57 213.97,69.85 211.70,67.13 209.49,64.54 207.28,62.01 205.05,59.51 202.85,57.09 200.66,54.73 198.46,52.42 196.31,50.21 194.17,48.08 191.97,45.94 189.86,43.92 187.73,41.96 185.59,40.02 183.49,38.18 181.40,36.40 179.36,34.71 177.30,33.05 175.25,31.46 173.21,29.93 171.17,28.44 169.17,27.03 167.18,25.68 165.21,24.39 163.29,23.19 161.33,22.01 159.41,20.89 157.50,19.84 155.62,18.84 153.75,17.90 151.89,17.01 150.10,16.20 148.26,15.41 146.46,14.68 144.67,14.01 142.89,13.38 141.14,12.80 139.42,12.28 137.75,11.81 136.03,11.38 134.32,10.99 132.65,10.66 130.98,10.36 129.32,10.11 127.65,9.89 126.07,9.73 124.44,9.61 122.80,9.53 121.17,9.49 119.54,9.49 117.91,9.53 116.28,9.61 114.65,9.73 113.07,9.89 111.44,10.10 109.80,10.35 108.14,10.65 106.48,10.99 104.79,11.37 103.13,11.79 101.49,12.25 99.78,12.78 98.05,13.35 96.31,13.97 94.56,14.64 92.81,15.36 91.03,16.13 89.27,16.93 87.46,17.82 85.62,18.75 83.80,19.74 81.94,20.78 80.04,21.91 78.16,23.05 76.32,24.24 74.37,25.54 72.43,26.88 70.50,28.27 68.54,29.73 66.55,31.25 64.56,32.84 62.55,34.49 60.58,36.15 58.55,37.93 56.51,39.77 54.45,41.68 52.39,43.64 50.36,45.62 48.26,47.74 46.14,49.92 44.07,52.10 41.98,54.36 39.85,56.74 37.71,59.15 35.60,61.61 33.47,64.13 31.32,66.75 29.15,69.44 27.00,72.16 24.84,74.94 22.68,77.81 20.50,80.73 18.26,83.81"/>
        <lane id="-curve_ahead_15" index="15" speed="13.89" length="320.66" shape="227.84,82.30 226.67,80.75 225.57,79.30 223.25,76.30 220.95,73.39 218.69,70.55 216.43,67.81 214.15,65.07 211.92,62.45 209.68,59.89 207.43,57.37 205.21,54.92 202.99,52.54 200.76,50.20 198.59,47.96 196.42,45.80 194.19,43.63 192.05,41.59 189.89,39.59 187.72,37.63 185.59,35.76 183.46,33.95 181.38,32.22 179.28,30.54 177.19,28.92 175.11,27.36 173.03,25.84 170.99,24.40 168.95,23.02 166.94,21.70 164.96,20.46 162.96,19.25 160.99,18.11 159.03,17.03 157.09,16.00 155.16,15.03 153.24,14.11 151.39,13.27 149.49,12.46 147.63,11.70 145.77,11.00 143.93,10.35 142.11,9.75 140.32,9.21 138.57,8.72 136.77,8.27 134.99,7.86 133.24,7.51 131.50,7.20 129.76,6.94 128.02,6.71 126.35,6.55 124.64,6.42 122.92,6.33 121.21,6.29 119.50,6.29 117.79,6.33 116.08,6.42 114.37,6.55 112.71,6.71 110.99,6.94 109.27,7.19 107.54,7.51 105.80,7.86 104.04,8.26 102.30,8.70 100.58,9.18 98.80,9.73 97.01,10.33 95.20,10.97 93.38,11.67 91.57,12.41 89.73,13.21 87.90,14.04 86.03,14.96 84.14,15.92 82.26,16.94 80.35,18.01 78.39,19.16 76.46,20.34 74.57,21.56 72.57,22.89 70.59,24.26 68.61,25.68 66.61,27.18 64.58,28.73 62.55,30.35 60.50,32.03 58.49,33.73 56.43,35.54 54.35,37.41 52.26,39.34 50.17,41.33 48.10,43.35 45.97,45.50 43.83,47.70 41.73,49.91 39.62,52.21 37.46,54.61 35.30,57.05 33.16,59.53 31.01,62.08 28.84,64.73 26.65,67.44 24.48,70.19 22.30,73.00 20.12,75.89 17.93,78.83 15.67,81.93"/>
        <lane id="-curve_ahead_16" index="16" speed="13.89" length="320.66" shape="230.40,80.38 229.22,78.81 228.10,77.35 225.77,74.33 223.46,71.40 221.17,68.54 218.90,65.77 216.59,63.01 214.34,60.36 212.08,57.78 209.81,55.23 207.56,52.75 205.32,50.35 203.07,47.98 200.87,45.72 198.66,43.52 196.41,41.33 194.24,39.25 192.04,37.23 189.85,35.24 187.68,33.35 185.52,31.50 183.40,29.74 181.26,28.03 179.13,26.38 177.02,24.79 174.89,23.24 172.81,21.77 170.73,20.36 168.67,19.01 166.64,17.73 164.58,16.50 162.56,15.32 160.55,14.21 158.55,13.15 156.57,12.16 154.60,11.21 152.68,10.34 150.72,9.50 148.79,8.72 146.87,8.00 144.96,7.32 143.07,6.70 141.21,6.13 139.38,5.62 137.52,5.16 135.66,4.73 133.84,4.37 132.02,4.04 130.20,3.77 128.38,3.53 126.63,3.36 124.84,3.22 123.04,3.13 121.25,3.09 119.46,3.09 117.67,3.13 115.88,3.22 114.09,3.36 112.34,3.53 110.55,3.77 108.75,4.04 106.94,4.36 105.13,4.73 103.29,5.15 101.48,5.61 99.68,6.11 97.83,6.68 95.97,7.30 94.09,7.97 92.21,8.69 90.32,9.46 88.42,10.29 86.53,11.15 84.61,12.10 82.65,13.09 80.72,14.13 78.75,15.24 76.75,16.42 74.76,17.63 72.82,18.88 70.78,20.24 68.74,21.65 66.72,23.10 64.67,24.63 62.61,26.21 60.54,27.86 58.45,29.57 56.40,31.31 54.30,33.15 52.19,35.04 50.07,37.01 47.95,39.03 45.85,41.08 43.69,43.26 41.52,45.48 39.39,47.73 37.25,50.05 35.07,52.48 32.89,54.95 30.72,57.46 28.55,60.04 26.36,62.71 24.15,65.44 21.96,68.21 19.76,71.05 17.56,73.96 15.35,76.94 13.08,80.05"/>
        <lane id="-curve_ahead_17" index="17" speed="13.89" length="320.66" shape="232.95,78.45 231.77,76.88 230.64,75.40 228.30,72.36 225.96,69.41 223.66,66.53 221.36,63.73 219.04,60.95 216.76,58.27 214.48,55.66 212.19,53.08 209.92,50.59 207.65,48.15 205.37,45.76 203.14,43.47 200.91,41.24 198.64,39.03 196.43,36.92 194.20,34.87 191.98,32.85 189.78,30.93 187.58,29.05 185.42,27.26 183.24,25.52 181.08,23.83 178.92,22.21 176.76,20.64 174.63,19.14 172.50,17.70 170.40,16.31 168.31,15.01 166.21,13.74 164.14,12.54 162.08,11.40 160.02,10.31 157.98,9.29 155.95,8.31 153.97,7.41 151.94,6.55 149.96,5.74 147.97,4.99 146.00,4.29 144.04,3.65 142.11,3.06 140.20,2.53 138.26,2.05 136.34,1.61 134.44,1.22 132.54,0.88 130.64,0.60 128.75,0.35 126.91,0.17 125.04,0.03 123.16,-0.06 121.29,-0.11 119.42,-0.11 117.55,-0.06 115.68,0.03 113.81,0.17 111.98,0.35 110.10,0.60 108.23,0.88 106.34,1.22 104.45,1.60 102.54,2.04 100.65,2.52 98.78,3.04 96.86,3.63 94.93,4.28 92.98,4.97 91.03,5.72 89.08,6.51 87.12,7.36 85.16,8.26 83.18,9.23 81.17,10.25 79.17,11.33 77.15,12.46 75.10,13.68 73.06,14.92 71.06,16.21 68.98,17.60 66.90,19.03 64.83,20.52 62.74,22.08 60.64,23.69 58.53,25.37 56.40,27.11 54.31,28.88 52.18,30.76 50.04,32.68 47.88,34.68 45.73,36.73 43.59,38.81 41.41,41.01 39.22,43.26 37.06,45.54 34.89,47.90 32.68,50.35 30.48,52.84 28.29,55.38 26.09,57.99 23.88,60.69 21.65,63.45 19.43,66.24 17.22,69.11 15.00,72.04 12.77,75.04 10.50,78.17"/>