<?xml version="1.0" encoding="UTF-8"?>

<!-- generated on Thu 22 Apr 2021 10:35:54 AM EDT by Eclipse SUMO netedit Version 1.9.0
<configuration xmlns:xsi="http://www.w3.org/2001/XMLSchema-instance" xsi:noNamespaceSchemaLocation="http://sumo.dlr.de/xsd/netconvertConfiguration.xsd">

    <input>
        <sumo-net-file value="/home/dev/Desktop/BM_Scenarios/basic/off_ramp_1to2_lane.net.xml"/>
    </input>

    <output>
        <output-file value="/home/dev/Desktop/BM_Scenarios/basic/off_ramp_1to2_lane.net.xml"/>
    </output>

    <processing>
        <geometry.min-radius.fix.railways value="false"/>
        <geometry.max-grade.fix value="false"/>
        <offset.disable-normalization value="true"/>
        <lefthand value="false"/>
    </processing>

    <junctions>
        <no-turnarounds value="true"/>
        <junctions.corner-detail value="5"/>
        <junctions.limit-turn-speed value="5.5"/>
        <rectangular-lane-cut value="false"/>
    </junctions>

    <pedestrian>
        <walkingareas value="false"/>
    </pedestrian>

    <report>
        <aggregate-warnings value="5"/>
    </report>

</configuration>
-->

<net version="1.9" junctionCornerDetail="5" limitTurnSpeed="5.50" xmlns:xsi="http://www.w3.org/2001/XMLSchema-instance" xsi:noNamespaceSchemaLocation="http://sumo.dlr.de/xsd/net_file.xsd">

    <location netOffset="0.00,0.00" convBoundary="136.30,-59.58,350.33,-27.08" origBoundary="-10000000000.00,-10000000000.00,10000000000.00,10000000000.00" projParameter="!"/>

    <edge id=":on_ramp_junction_0" function="internal">
        <lane id=":on_ramp_junction_0_0" index="0" speed="13.89" length="15.10" shape="218.29,-36.78 221.33,-35.10 224.22,-33.56 227.66,-32.43 232.36,-31.99"/>
    </edge>
    <edge id=":on_ramp_junction_1" function="internal">
        <lane id=":on_ramp_junction_1_0" index="0" speed="13.89" length="15.20" shape="217.17,-31.97 232.36,-31.99"/>
        <lane id=":on_ramp_junction_1_1" index="1" speed="13.89" length="15.20" shape="217.17,-28.77 232.36,-28.79"/>
    </edge>

    <edge id="on_ramp" from="on_ramp_start" to="on_ramp_junction" priority="-1">
        <lane id="on_ramp_0" index="0" speed="13.89" length="54.74" shape="169.20,-61.01 218.29,-36.78"/>
    </edge>
    <edge id="straight_ahead_1" from="west_end" to="on_ramp_junction" priority="-1">
        <lane id="straight_ahead_1_0" index="0" speed="13.89" length="80.87" shape="136.29,-31.88 217.17,-31.97"/>
        <lane id="straight_ahead_1_1" index="1" speed="13.89" length="80.87" shape="136.30,-28.68 217.17,-28.77"/>
    </edge>
    <edge id="straight_ahead_2" from="on_ramp_junction" to="east_end" priority="-1">
        <lane id="straight_ahead_2_0" index="0" speed="13.89" length="117.97" shape="232.36,-31.99 350.33,-31.99"/>
        <lane id="straight_ahead_2_1" index="1" speed="13.89" length="117.97" shape="232.36,-28.79 350.33,-28.79"/>
    </edge>

    <junction id="east_end" type="dead_end" x="350.33" y="-27.19" incLanes="straight_ahead_2_0 straight_ahead_2_1" intLanes="" shape="350.33,-33.59 350.33,-27.19"/>
    <junction id="on_ramp_junction" type="priority" x="234.10" y="-27.19" incLanes="on_ramp_0 straight_ahead_1_0 straight_ahead_1_1" intLanes=":on_ramp_junction_0_0 :on_ramp_junction_1_0 :on_ramp_junction_1_1" shape="232.36,-27.19 232.36,-33.59 229.36,-33.72 227.16,-34.09 225.41,-34.73 223.71,-35.62 221.70,-36.79 219.00,-38.22 217.58,-35.35 217.17,-33.57 217.17,-27.17">
        <request index="0" response="110" foes="110" cont="0"/>
        <request index="1" response="000" foes="001" cont="0"/>
        <request index="2" response="000" foes="001" cont="0"/>
    </junction>
    <junction id="on_ramp_start" type="dead_end" x="168.49" y="-59.58" incLanes="" intLanes="" shape="168.49,-59.58 169.91,-62.45"/>
    <junction id="west_end" type="dead_end" x="136.30" y="-27.08" incLanes="" intLanes="" shape="136.30,-27.08 136.29,-33.48"/>

    <connection from="on_ramp" to="straight_ahead_2" fromLane="0" toLane="0" via=":on_ramp_junction_0_0" dir="s" state="m"/>
    <connection from="straight_ahead_1" to="straight_ahead_2" fromLane="0" toLane="0" via=":on_ramp_junction_1_0" dir="s" state="M"/>
    <connection from="straight_ahead_1" to="straight_ahead_2" fromLane="1" toLane="1" via=":on_ramp_junction_1_1" dir="s" state="M"/>

    <connection from=":on_ramp_junction_0" to="straight_ahead_2" fromLane="0" toLane="0" dir="s" state="M"/>
    <connection from=":on_ramp_junction_1" to="straight_ahead_2" fromLane="0" toLane="0" dir="s" state="M"/>
    <connection from=":on_ramp_junction_1" to="straight_ahead_2" fromLane="1" toLane="1" dir="s" state="M"/>

</net>
