<?xml version="1.0" encoding="UTF-8"?>

<!-- generated on Thu 22 Apr 2021 12:02:51 AM EDT by Eclipse SUMO netedit Version 1.9.0
<configuration xmlns:xsi="http://www.w3.org/2001/XMLSchema-instance" xsi:noNamespaceSchemaLocation="http://sumo.dlr.de/xsd/netconvertConfiguration.xsd">

    <input>
        <sumo-net-file value="/home/dev/Desktop/BM_Scenarios/basic/curve_ahead_long_2w.net.xml"/>
    </input>

    <output>
        <output-file value="/home/dev/Desktop/BM_Scenarios/basic/curve_ahead_long_2w.net.xml"/>
    </output>

    <processing>
        <geometry.min-radius.fix.railways value="false"/>
        <geometry.max-grade.fix value="false"/>
        <offset.disable-normalization value="true"/>
        <lefthand value="false"/>
    </processing>

    <junctions>
        <no-internal-links value="true"/>
        <no-turnarounds value="true"/>
        <junctions.corner-detail value="5"/>
        <junctions.limit-turn-speed value="5.5"/>
        <rectangular-lane-cut value="false"/>
    </junctions>

    <pedestrian>
        <walkingareas value="false"/>
    </pedestrian>

    <report>
        <aggregate-warnings value="5"/>
    </report>

</configuration>
-->

<net version="1.9" junctionCornerDetail="5" limitTurnSpeed="5.50" xmlns:xsi="http://www.w3.org/2001/XMLSchema-instance" xsi:noNamespaceSchemaLocation="http://sumo.dlr.de/xsd/net_file.xsd">

    <location netOffset="0.00,0.00" convBoundary="-475.59,-105.61,404.71,66.82" origBoundary="-10000000000.00,-10000000000.00,10000000000.00,10000000000.00" projParameter="!"/>

    <edge id="curve_ahead" from="curve_ahead_west" to="curve_ahead_east" priority="-1" shape="-475.59,66.82 -472.48,64.36 -469.37,61.91 -466.26,59.48 -463.15,57.07 -460.04,54.68 -456.93,52.31 -453.82,49.95 -450.71,47.61 -447.59,45.29 -444.48,42.98 -441.37,40.70 -438.25,38.43 -435.14,36.18 -432.02,33.95 -428.91,31.73 -425.79,29.53 -422.68,27.35 -419.56,25.19 -416.45,23.05 -413.33,20.92 -410.21,18.81 -407.10,16.72 -403.98,14.65 -400.86,12.59 -397.75,10.55 -394.63,8.53 -391.51,6.53 -388.39,4.55 -385.27,2.58 -382.15,0.63 -379.03,-1.30 -375.91,-3.22 -372.79,-5.11 -369.67,-6.99 -366.55,-8.85 -363.43,-10.69 -360.31,-12.52 -357.18,-14.33 -354.06,-16.12 -350.94,-17.89 -347.82,-19.64 -344.69,-21.38 -341.57,-23.10 -338.44,-24.80 -335.32,-26.48 -332.19,-28.15 -329.07,-29.80 -325.94,-31.43 -322.82,-33.04 -319.69,-34.64 -316.57,-36.21 -313.44,-37.77 -310.31,-39.32 -307.19,-40.84 -304.06,-42.35 -300.93,-43.83 -297.80,-45.31 -294.67,-46.76 -291.54,-48.19 -288.41,-49.61 -285.29,-51.01 -282.16,-52.39 -279.03,-53.76 -275.89,-55.11 -272.76,-56.43 -269.63,-57.75 -266.50,-59.04 -263.37,-60.32 -260.24,-61.57 -257.10,-62.81 -253.97,-64.04 -250.84,-65.24 -247.71,-66.43 -244.57,-67.60 -241.44,-68.75 -238.30,-69.89 -235.17,-71.00 -232.03,-72.10 -228.90,-73.18 -225.76,-74.25 -222.63,-75.29 -219.49,-76.32 -216.35,-77.33 -213.22,-78.32 -210.08,-79.30 -206.94,-80.25 -203.80,-81.19 -200.66,-82.11 -197.53,-83.02 -194.39,-83.90 -191.25,-84.77 -188.11,-85.62 -184.97,-86.46 -181.83,-87.27 -178.69,-88.07 -175.55,-88.85 -172.40,-89.61 -169.26,-90.35 -166.12,-91.08 -162.98,-91.79 -159.84,-92.48 -156.69,-93.15 -153.55,-93.81 -150.41,-94.45 -147.26,-95.07 -144.12,-95.67 -140.97,-96.26 -137.83,-96.82 -134.68,-97.37 -131.54,-97.90 -128.39,-98.42 -125.25,-98.91 -122.10,-99.39 -118.95,-99.85 -115.81,-100.30 -112.66,-100.72 -109.51,-101.13 -106.36,-101.52 -103.22,-101.89 -100.07,-102.25 -96.92,-102.58 -93.77,-102.90 -90.62,-103.20 -87.47,-103.49 -84.32,-103.75 -81.17,-104.00 -78.02,-104.23 -74.86,-104.44 -71.71,-104.64 -68.56,-104.82 -65.41,-104.97 -62.26,-105.12 -59.10,-105.24 -55.95,-105.35 -52.80,-105.44 -49.64,-105.51 -46.49,-105.56 -43.33,-105.59 -40.18,-105.61 -37.02,-105.61 -33.87,-105.59 -30.71,-105.56 -27.56,-105.51 -24.40,-105.44 -21.24,-105.35 -18.09,-105.24 -14.93,-105.12 -11.77,-104.97 -8.61,-104.82 -5.45,-104.64 -2.30,-104.44 0.86,-104.23 4.02,-104.00 7.18,-103.75 10.34,-103.49 13.50,-103.20 16.66,-102.90 19.83,-102.58 22.99,-102.25 26.15,-101.89 29.31,-101.52 32.47,-101.13 35.64,-100.72 38.80,-100.30 41.96,-99.85 45.13,-99.39 48.29,-98.91 51.45,-98.42 54.62,-97.90 57.78,-97.37 60.95,-96.82 64.11,-96.26 67.28,-95.67 70.45,-95.07 73.61,-94.45 76.78,-93.81 79.95,-93.15 83.11,-92.48 86.28,-91.79 89.45,-91.08 92.62,-90.35 95.79,-89.61 98.96,-88.85 102.13,-88.07 105.30,-87.27 108.47,-86.46 111.64,-85.62 114.81,-84.77 117.98,-83.90 121.15,-83.02 124.32,-82.11 127.49,-81.19 130.67,-80.25 133.84,-79.30 137.01,-78.32 140.19,-77.33 143.36,-76.32 146.53,-75.29 149.71,-74.25 152.88,-73.18 156.06,-72.10 159.23,-71.00 162.41,-69.89 165.58,-68.75 168.76,-67.60 171.94,-66.43 175.11,-65.24 178.29,-64.04 181.47,-62.81 184.65,-61.57 187.83,-60.32 191.00,-59.04 194.18,-57.75 197.36,-56.43 200.54,-55.11 203.72,-53.76 206.90,-52.39 210.08,-51.01 213.26,-49.61 216.44,-48.19 219.63,-46.76 222.81,-45.31 225.99,-43.83 229.17,-42.35 232.36,-40.84 235.54,-39.32 238.72,-37.77 241.91,-36.21 245.09,-34.64 248.27,-33.04 251.46,-31.43 254.64,-29.80 257.83,-28.15 261.02,-26.48 264.20,-24.80 267.39,-23.10 270.57,-21.38 273.76,-19.64 276.95,-17.89 280.14,-16.12 283.32,-14.33 286.51,-12.52 289.70,-10.69 292.89,-8.85 296.08,-6.99 299.27,-5.11 302.46,-3.22 305.65,-1.30 308.84,0.63 312.03,2.58 315.22,4.55 318.41,6.53 321.61,8.53 324.80,10.55 327.99,12.59 331.18,14.65 334.38,16.72 337.57,18.81 340.76,20.92 343.96,23.05 347.15,25.19 350.35,27.35 353.54,29.53 356.74,31.73 359.93,33.95 363.13,36.18 366.33,38.43 369.52,40.70 372.72,42.98 375.92,45.29 379.12,47.61 382.31,49.95 385.51,52.31 388.71,54.68 391.91,57.07 393.51,58.28 395.11,59.48 396.71,60.70 398.31,61.91 399.91,63.13 401.51,64.36 403.11,65.59 404.71,66.82">
        <lane id="curve_ahead_0" index="0" speed="13.89" length="963.50" shape="-478.57,63.06 -475.45,60.59 -472.33,58.13 -469.21,55.69 -466.08,53.27 -462.96,50.87 -459.84,48.49 -456.71,46.12 -453.59,43.77 -450.45,41.44 -447.33,39.12 -444.20,36.82 -441.07,34.54 -437.94,32.28 -434.81,30.04 -431.69,27.82 -428.55,25.60 -425.42,23.41 -422.29,21.24 -419.16,19.09 -416.03,16.95 -412.89,14.83 -409.77,12.73 -406.63,10.65 -403.50,8.58 -400.37,6.53 -397.23,4.49 -394.09,2.48 -390.96,0.49 -387.82,-1.48 -384.68,-3.45 -381.55,-5.39 -378.41,-7.32 -375.27,-9.22 -372.14,-11.11 -369.00,-12.98 -365.86,-14.83 -362.73,-16.67 -359.58,-18.49 -356.44,-20.29 -353.30,-22.07 -350.16,-23.83 -347.01,-25.58 -343.87,-27.31 -340.72,-29.02 -337.59,-30.71 -334.44,-32.39 -331.30,-34.05 -328.15,-35.69 -325.01,-37.31 -321.86,-38.92 -318.72,-40.50 -315.58,-42.07 -312.43,-43.63 -309.28,-45.16 -306.13,-46.68 -302.98,-48.17 -299.83,-49.66 -296.68,-51.12 -293.53,-52.56 -290.38,-53.99 -287.24,-55.40 -284.09,-56.78 -280.94,-58.16 -277.77,-59.53 -274.63,-60.85 -271.48,-62.18 -268.32,-63.48 -265.17,-64.77 -262.01,-66.03 -258.86,-67.28 -255.71,-68.51 -252.55,-69.72 -249.40,-70.92 -246.24,-72.10 -243.09,-73.26 -239.92,-74.41 -236.77,-75.53 -233.61,-76.63 -230.46,-77.72 -227.29,-78.80 -224.13,-79.85 -220.97,-80.89 -217.81,-81.90 -214.66,-82.90 -211.49,-83.89 -208.32,-84.85 -205.16,-85.79 -202.00,-86.72 -198.85,-87.64 -195.68,-88.52 -192.52,-89.40 -189.36,-90.26 -186.19,-91.10 -183.02,-91.92 -179.86,-92.72 -176.69,-93.51 -173.51,-94.28 -170.35,-95.02 -167.19,-95.76 -164.02,-96.47 -160.85,-97.17 -157.68,-97.85 -154.52,-98.51 -151.35,-99.16 -148.17,-99.78 -145.01,-100.39 -141.83,-100.98 -138.66,-101.55 -135.49,-102.10 -132.33,-102.63 -129.15,-103.16 -125.98,-103.65 -122.81,-104.14 -119.64,-104.60 -116.47,-105.05 -113.29,-105.48 -110.11,-105.89 -106.94,-106.29 -103.77,-106.66 -100.59,-107.02 -97.41,-107.35 -94.24,-107.68 -91.07,-107.98 -87.89,-108.27 -84.71,-108.53 -81.53,-108.79 -78.35,-109.02 -75.17,-109.23 -72.00,-109.43 -68.81,-109.61 -65.64,-109.76 -62.47,-109.92 -59.27,-110.04 -56.10,-110.15 -52.92,-110.24 -49.73,-110.31 -46.55,-110.36 -43.37,-110.39 -40.20,-110.41 -37.00,-110.41 -33.83,-110.39 -30.65,-110.36 -27.47,-110.31 -24.28,-110.24 -21.09,-110.15 -17.92,-110.04 -14.73,-109.92 -11.54,-109.76 -8.36,-109.61 -5.16,-109.43 -1.99,-109.23 1.19,-109.02 4.38,-108.79 7.57,-108.53 10.76,-108.27 13.95,-107.98 17.13,-107.68 20.32,-107.35 23.51,-107.02 26.70,-106.66 29.88,-106.29 33.07,-105.89 36.26,-105.48 39.45,-105.06 42.64,-104.60 45.84,-104.14 49.02,-103.65 52.21,-103.16 55.41,-102.64 58.59,-102.10 61.78,-101.55 64.97,-100.98 68.17,-100.39 71.36,-99.78 74.55,-99.16 77.74,-98.51 80.94,-97.85 84.12,-97.17 87.32,-96.48 90.51,-95.76 93.70,-95.03 96.90,-94.28 100.09,-93.51 103.29,-92.73 106.48,-91.92 109.68,-91.11 112.88,-90.26 116.07,-89.40 119.26,-88.53 122.45,-87.64 125.65,-86.72 128.84,-85.80 132.04,-84.85 135.24,-83.89 138.43,-82.90 141.63,-81.91 144.83,-80.89 148.02,-79.85 151.22,-78.81 154.42,-77.73 157.62,-76.64 160.81,-75.53 164.01,-74.41 167.21,-73.27 170.40,-72.11 173.61,-70.93 176.80,-69.73 180.00,-68.52 183.21,-67.28 186.40,-66.04 189.61,-64.78 192.80,-63.49 196.00,-62.19 199.20,-60.86 202.40,-59.54 205.61,-58.17 208.81,-56.80 212.00,-55.41 215.21,-54.00 218.40,-52.57 221.61,-51.13 224.82,-49.67 228.02,-48.18 231.21,-46.70 234.42,-45.17 237.63,-43.64 240.83,-42.08 244.03,-40.52 247.23,-38.94 250.43,-37.33 253.64,-35.71 256.84,-34.07 260.05,-32.41 263.25,-30.73 266.45,-29.04 269.66,-27.33 272.86,-25.60 276.06,-23.85 279.27,-22.09 282.48,-20.31 285.68,-18.51 288.89,-16.69 292.09,-14.85 295.30,-13.00 298.51,-11.13 301.71,-9.24 304.92,-7.34 308.13,-5.41 311.33,-3.47 314.54,-1.51 317.75,0.47 320.95,2.46 324.17,4.47 327.38,6.50 330.58,8.55 333.79,10.62 337.00,12.70 340.21,14.80 343.41,16.92 346.63,19.06 349.83,21.21 353.05,23.38 356.25,25.57 359.47,27.78 362.67,30.01 365.88,32.25 369.10,34.51 372.30,36.79 375.52,39.08 378.73,41.40 381.95,43.73 385.15,46.08 388.36,48.45 391.57,50.83 394.79,53.23 396.40,54.45 398.01,55.65 399.61,56.88 401.21,58.09 402.83,59.32 404.44,60.55 406.04,61.78 407.64,63.01"/>
        <lane id="curve_ahead_1" index="1" speed="13.89" length="963.50" shape="-476.58,65.57 -473.47,63.10 -470.36,60.65 -467.24,58.22 -464.13,55.80 -461.01,53.41 -457.90,51.04 -454.78,48.67 -451.67,46.33 -448.54,44.01 -445.43,41.69 -442.31,39.41 -439.19,37.13 -436.07,34.88 -432.95,32.65 -429.84,30.43 -426.71,28.22 -423.59,26.04 -420.47,23.87 -417.35,21.73 -414.23,19.60 -411.10,17.48 -407.99,15.39 -404.86,13.32 -401.74,11.25 -398.62,9.21 -395.50,7.18 -392.37,5.18 -389.25,3.20 -386.12,1.23 -382.99,-0.73 -379.87,-2.66 -376.74,-4.59 -373.62,-6.48 -370.49,-8.36 -367.37,-10.23 -364.24,-12.07 -361.12,-13.90 -357.98,-15.72 -354.85,-17.51 -351.73,-19.28 -348.60,-21.04 -345.46,-22.78 -342.34,-24.50 -339.20,-26.21 -336.08,-27.89 -332.94,-29.56 -329.81,-31.22 -326.68,-32.85 -323.55,-34.46 -320.41,-36.07 -317.29,-37.64 -314.15,-39.20 -311.02,-40.76 -307.89,-42.28 -304.75,-43.79 -301.61,-45.28 -298.48,-46.76 -295.34,-48.21 -292.20,-49.65 -289.07,-51.07 -285.94,-52.47 -282.80,-53.85 -279.67,-55.23 -276.52,-56.58 -273.38,-57.90 -270.25,-59.23 -267.11,-60.52 -263.97,-61.80 -260.83,-63.06 -257.69,-64.30 -254.55,-65.53 -251.41,-66.73 -248.27,-67.93 -245.13,-69.10 -241.99,-70.25 -238.84,-71.40 -235.70,-72.51 -232.56,-73.61 -229.42,-74.69 -226.27,-75.77 -223.13,-76.81 -219.98,-77.84 -216.84,-78.85 -213.70,-79.85 -210.55,-80.83 -207.40,-81.78 -204.25,-82.72 -201.11,-83.65 -197.97,-84.56 -194.82,-85.44 -191.67,-86.31 -188.53,-87.17 -185.38,-88.01 -182.23,-88.82 -179.08,-89.62 -175.93,-90.40 -172.77,-91.17 -169.62,-91.91 -166.48,-92.64 -163.33,-93.35 -160.18,-94.04 -157.02,-94.72 -153.87,-95.38 -150.72,-96.02 -147.56,-96.64 -144.42,-97.24 -141.26,-97.83 -138.11,-98.40 -134.95,-98.95 -131.80,-99.48 -128.64,-100.00 -125.49,-100.49 -122.34,-100.97 -119.18,-101.43 -116.03,-101.88 -112.87,-102.31 -109.71,-102.72 -106.55,-103.11 -103.40,-103.48 -100.24,-103.84 -97.08,-104.17 -93.93,-104.49 -90.77,-104.79 -87.61,-105.08 -84.45,-105.34 -81.29,-105.60 -78.13,-105.83 -74.96,-106.04 -71.81,-106.24 -68.64,-106.42 -65.49,-106.57 -62.33,-106.72 -59.16,-106.84 -56.00,-106.95 -52.84,-107.04 -49.67,-107.11 -46.51,-107.16 -43.34,-107.19 -40.19,-107.21 -37.01,-107.21 -33.86,-107.19 -30.69,-107.16 -27.53,-107.11 -24.36,-107.04 -21.19,-106.95 -18.03,-106.84 -14.86,-106.72 -11.69,-106.57 -8.53,-106.42 -5.35,-106.24 -2.20,-106.04 0.97,-105.83 4.14,-105.60 7.31,-105.34 10.48,-105.08 13.65,-104.79 16.82,-104.49 19.99,-104.17 23.16,-103.84 26.33,-103.48 29.50,-103.11 32.67,-102.72 35.85,-102.31 39.02,-101.89 42.19,-101.43 45.37,-100.97 48.53,-100.49 51.70,-100.00 54.88,-99.48 58.05,-98.95 61.23,-98.40 64.40,-97.83 67.58,-97.24 70.75,-96.64 73.92,-96.02 77.10,-95.38 80.28,-94.72 83.45,-94.04 86.63,-93.35 89.80,-92.64 92.98,-91.91 96.16,-91.17 99.34,-90.40 102.52,-89.62 105.69,-88.82 108.87,-88.01 112.05,-87.17 115.23,-86.31 118.41,-85.44 121.58,-84.56 124.76,-83.65 127.94,-82.73 131.13,-81.78 134.31,-80.83 137.48,-79.85 140.67,-78.86 143.85,-77.84 147.03,-76.81 150.21,-75.77 153.39,-74.70 156.58,-73.61 159.76,-72.51 162.94,-71.40 166.12,-70.26 169.31,-69.10 172.50,-67.93 175.67,-66.74 178.86,-65.53 182.05,-64.30 185.23,-63.06 188.42,-61.81 191.60,-60.52 194.79,-59.23 197.97,-57.91 201.16,-56.59 204.35,-55.23 207.54,-53.86 210.72,-52.48 213.91,-51.07 217.09,-49.65 220.29,-48.22 223.48,-46.76 226.67,-45.28 229.85,-43.80 233.05,-42.28 236.24,-40.76 239.42,-39.21 242.62,-37.65 245.80,-36.07 248.99,-34.47 252.19,-32.86 255.37,-31.22 258.57,-29.57 261.76,-27.90 264.95,-26.21 268.15,-24.51 271.33,-22.79 274.53,-21.04 277.72,-19.29 280.92,-17.52 284.11,-15.72 287.30,-13.91 290.50,-12.08 293.69,-10.23 296.89,-8.37 300.08,-6.49 303.28,-4.59 306.48,-2.67 309.67,-0.74 312.87,1.22 316.06,3.19 319.26,5.17 322.46,7.18 325.66,9.20 328.85,11.24 332.05,13.31 335.25,15.38 338.45,17.47 341.64,19.59 344.85,21.72 348.04,23.86 351.25,26.03 354.44,28.21 357.65,30.41 360.84,32.64 364.05,34.87 367.25,37.12 370.45,39.40 373.65,41.68 376.86,43.99 380.06,46.32 383.26,48.66 386.46,51.02 389.66,53.40 392.87,55.79 394.47,57.00 396.08,58.20 397.68,59.43 399.28,60.64 400.88,61.86 402.49,63.09 404.09,64.32 405.69,65.55"/>
    </edge>

    <junction id="curve_ahead_east" type="dead_end" x="404.71" y="66.82" incLanes="curve_ahead_0 curve_ahead_1" intLanes="" shape="408.61,61.75 404.71,66.82"/>
    <junction id="curve_ahead_west" type="dead_end" x="-475.59" y="66.82" incLanes="" intLanes="" shape="-475.59,66.82 -479.56,61.80"/>

</net>
