<?xml version="1.0" encoding="UTF-8"?>

<!-- generated on 2022-03-10 17:24:59 by Eclipse SUMO netedit Version 1.12.0
<configuration xmlns:xsi="http://www.w3.org/2001/XMLSchema-instance" xsi:noNamespaceSchemaLocation="http://sumo.dlr.de/xsd/netconvertConfiguration.xsd">

    <output>
        <output-file value="/home/sqy201x/contest_scenarios/map.net.xml"/>
    </output>

    <processing>
        <offset.disable-normalization value="true"/>
    </processing>

    <junctions>
        <no-turnarounds value="true"/>
    </junctions>

    <report>
        <aggregate-warnings value="5"/>
    </report>

</configuration>
-->

<net version="1.9" junctionCornerDetail="5" limitTurnSpeed="5.50" xmlns:xsi="http://www.w3.org/2001/XMLSchema-instance" xsi:noNamespaceSchemaLocation="http://sumo.dlr.de/xsd/net_file.xsd">

    <location netOffset="0.00,0.00" convBoundary="-67.92,-17.02,54.88,91.90" origBoundary="10000000000.00,10000000000.00,-10000000000.00,-10000000000.00" projParameter="!"/>

    <edge id=":J1_0" function="internal">
        <lane id=":J1_0_0" index="0" speed="6.51" length="9.03" shape="-43.98,76.70 -44.33,74.25 -45.38,72.50 -47.13,71.45 -49.58,71.10"/>
    </edge>
    <edge id=":J1_1" function="internal">
        <lane id=":J1_1_0" index="0" speed="13.89" length="20.80" shape="-43.98,76.70 -43.98,55.90"/>
        <lane id=":J1_1_1" index="1" speed="13.89" length="20.80" shape="-40.78,76.70 -40.78,55.90"/>
    </edge>
    <edge id=":J1_3" function="internal">
        <lane id=":J1_3_0" index="0" speed="9.26" length="5.01" shape="-40.78,76.70 -40.07,71.73"/>
    </edge>
    <edge id=":J1_16" function="internal">
        <lane id=":J1_16_0" index="0" speed="9.26" length="14.34" shape="-40.07,71.73 -40.03,71.45 -37.78,67.70 -34.03,65.45 -28.78,64.70"/>
    </edge>
    <edge id=":J1_4" function="internal">
        <lane id=":J1_4_0" index="0" speed="6.51" length="9.03" shape="-28.78,71.10 -31.23,71.45 -32.98,72.50 -34.03,74.25 -34.38,76.70"/>
    </edge>
    <edge id=":J1_5" function="internal">
        <lane id=":J1_5_0" index="0" speed="13.89" length="20.80" shape="-28.78,71.10 -49.58,71.10"/>
        <lane id=":J1_5_1" index="1" speed="13.89" length="20.80" shape="-28.78,67.90 -49.58,67.90"/>
    </edge>
    <edge id=":J1_7" function="internal">
        <lane id=":J1_7_0" index="0" speed="9.26" length="19.35" shape="-28.78,67.90 -34.03,67.15 -37.78,64.90 -40.03,61.15 -40.78,55.90"/>
    </edge>
    <edge id=":J1_8" function="internal">
        <lane id=":J1_8_0" index="0" speed="6.51" length="9.03" shape="-34.38,55.90 -34.03,58.35 -32.98,60.10 -31.23,61.15 -28.78,61.50"/>
    </edge>
    <edge id=":J1_9" function="internal">
        <lane id=":J1_9_0" index="0" speed="13.89" length="20.80" shape="-34.38,55.90 -34.38,76.70"/>
        <lane id=":J1_9_1" index="1" speed="13.89" length="20.80" shape="-37.58,55.90 -37.58,76.70"/>
    </edge>
    <edge id=":J1_11" function="internal">
        <lane id=":J1_11_0" index="0" speed="9.26" length="5.01" shape="-37.58,55.90 -38.29,60.86"/>
    </edge>
    <edge id=":J1_17" function="internal">
        <lane id=":J1_17_0" index="0" speed="9.26" length="14.34" shape="-38.29,60.86 -38.33,61.15 -40.58,64.90 -44.33,67.15 -49.58,67.90"/>
    </edge>
    <edge id=":J1_12" function="internal">
        <lane id=":J1_12_0" index="0" speed="6.51" length="9.03" shape="-49.58,61.50 -47.13,61.15 -45.38,60.10 -44.33,58.35 -43.98,55.90"/>
    </edge>
    <edge id=":J1_13" function="internal">
        <lane id=":J1_13_0" index="0" speed="13.89" length="20.80" shape="-49.58,61.50 -28.78,61.50"/>
        <lane id=":J1_13_1" index="1" speed="13.89" length="20.80" shape="-49.58,64.70 -28.78,64.70"/>
    </edge>
    <edge id=":J1_15" function="internal">
        <lane id=":J1_15_0" index="0" speed="9.26" length="19.35" shape="-49.58,64.70 -44.33,65.45 -40.58,67.70 -38.33,71.45 -37.58,76.70"/>
    </edge>
    <edge id=":J2_0" function="internal">
        <lane id=":J2_0_0" index="0" speed="6.51" length="9.03" shape="20.11,76.70 19.76,74.25 18.71,72.50 16.96,71.45 14.51,71.10"/>
    </edge>
    <edge id=":J2_1" function="internal">
        <lane id=":J2_1_0" index="0" speed="13.89" length="20.80" shape="20.11,76.70 20.11,55.90"/>
        <lane id=":J2_1_1" index="1" speed="13.89" length="20.80" shape="23.31,76.70 23.31,55.90"/>
    </edge>
    <edge id=":J2_3" function="internal">
        <lane id=":J2_3_0" index="0" speed="9.26" length="5.01" shape="23.31,76.70 24.02,71.74"/>
    </edge>
    <edge id=":J2_16" function="internal">
        <lane id=":J2_16_0" index="0" speed="9.26" length="14.34" shape="24.02,71.74 24.06,71.45 26.31,67.70 30.06,65.45 35.31,64.70"/>
    </edge>
    <edge id=":J2_4" function="internal">
        <lane id=":J2_4_0" index="0" speed="6.51" length="9.03" shape="35.31,71.10 32.86,71.45 31.11,72.50 30.06,74.25 29.71,76.70"/>
    </edge>
    <edge id=":J2_5" function="internal">
        <lane id=":J2_5_0" index="0" speed="13.89" length="20.80" shape="35.31,71.10 14.51,71.10"/>
        <lane id=":J2_5_1" index="1" speed="13.89" length="20.80" shape="35.31,67.90 14.51,67.90"/>
    </edge>
    <edge id=":J2_7" function="internal">
        <lane id=":J2_7_0" index="0" speed="9.26" length="19.35" shape="35.31,67.90 30.06,67.15 26.31,64.90 24.06,61.15 23.31,55.90"/>
    </edge>
    <edge id=":J2_8" function="internal">
        <lane id=":J2_8_0" index="0" speed="6.51" length="9.03" shape="29.71,55.90 30.06,58.35 31.11,60.10 32.86,61.15 35.31,61.50"/>
    </edge>
    <edge id=":J2_9" function="internal">
        <lane id=":J2_9_0" index="0" speed="13.89" length="20.80" shape="29.71,55.90 29.71,76.70"/>
        <lane id=":J2_9_1" index="1" speed="13.89" length="20.80" shape="26.51,55.90 26.51,76.70"/>
    </edge>
    <edge id=":J2_11" function="internal">
        <lane id=":J2_11_0" index="0" speed="9.26" length="5.01" shape="26.51,55.90 25.80,60.86"/>
    </edge>
    <edge id=":J2_17" function="internal">
        <lane id=":J2_17_0" index="0" speed="9.26" length="14.34" shape="25.80,60.86 25.76,61.15 23.51,64.90 19.76,67.15 14.51,67.90"/>
    </edge>
    <edge id=":J2_12" function="internal">
        <lane id=":J2_12_0" index="0" speed="6.51" length="9.03" shape="14.51,61.50 16.96,61.15 18.71,60.10 19.76,58.35 20.11,55.90"/>
    </edge>
    <edge id=":J2_13" function="internal">
        <lane id=":J2_13_0" index="0" speed="13.89" length="20.80" shape="14.51,61.50 35.31,61.50"/>
        <lane id=":J2_13_1" index="1" speed="13.89" length="20.80" shape="14.51,64.70 35.31,64.70"/>
    </edge>
    <edge id=":J2_15" function="internal">
        <lane id=":J2_15_0" index="0" speed="9.26" length="19.35" shape="14.51,64.70 19.76,65.45 23.51,67.70 25.76,71.45 26.51,76.70"/>
    </edge>
    <edge id=":J3_0" function="internal">
        <lane id=":J3_0_0" index="0" speed="6.51" length="9.03" shape="20.11,24.77 19.76,22.32 18.71,20.57 16.96,19.52 14.51,19.17"/>
    </edge>
    <edge id=":J3_1" function="internal">
        <lane id=":J3_1_0" index="0" speed="13.89" length="20.80" shape="20.11,24.77 20.11,3.97"/>
        <lane id=":J3_1_1" index="1" speed="13.89" length="20.80" shape="23.31,24.77 23.31,3.97"/>
    </edge>
    <edge id=":J3_3" function="internal">
        <lane id=":J3_3_0" index="0" speed="9.26" length="5.01" shape="23.31,24.77 24.02,19.81"/>
    </edge>
    <edge id=":J3_16" function="internal">
        <lane id=":J3_16_0" index="0" speed="9.26" length="14.34" shape="24.02,19.81 24.06,19.52 26.31,15.77 30.06,13.52 35.31,12.77"/>
    </edge>
    <edge id=":J3_4" function="internal">
        <lane id=":J3_4_0" index="0" speed="6.51" length="9.03" shape="35.31,19.17 32.86,19.52 31.11,20.57 30.06,22.32 29.71,24.77"/>
    </edge>
    <edge id=":J3_5" function="internal">
        <lane id=":J3_5_0" index="0" speed="13.89" length="20.80" shape="35.31,19.17 14.51,19.17"/>
        <lane id=":J3_5_1" index="1" speed="13.89" length="20.80" shape="35.31,15.97 14.51,15.97"/>
    </edge>
    <edge id=":J3_7" function="internal">
        <lane id=":J3_7_0" index="0" speed="9.26" length="19.35" shape="35.31,15.97 30.06,15.22 26.31,12.97 24.06,9.22 23.31,3.97"/>
    </edge>
    <edge id=":J3_8" function="internal">
        <lane id=":J3_8_0" index="0" speed="6.51" length="9.03" shape="29.71,3.97 30.06,6.42 31.11,8.17 32.86,9.22 35.31,9.57"/>
    </edge>
    <edge id=":J3_9" function="internal">
        <lane id=":J3_9_0" index="0" speed="13.89" length="20.80" shape="29.71,3.97 29.71,24.77"/>
        <lane id=":J3_9_1" index="1" speed="13.89" length="20.80" shape="26.51,3.97 26.51,24.77"/>
    </edge>
    <edge id=":J3_11" function="internal">
        <lane id=":J3_11_0" index="0" speed="9.26" length="5.01" shape="26.51,3.97 25.80,8.93"/>
    </edge>
    <edge id=":J3_17" function="internal">
        <lane id=":J3_17_0" index="0" speed="9.26" length="14.34" shape="25.80,8.93 25.76,9.22 23.51,12.97 19.76,15.22 14.51,15.97"/>
    </edge>
    <edge id=":J3_12" function="internal">
        <lane id=":J3_12_0" index="0" speed="6.51" length="9.03" shape="14.51,9.57 16.96,9.22 18.71,8.17 19.76,6.42 20.11,3.97"/>
    </edge>
    <edge id=":J3_13" function="internal">
        <lane id=":J3_13_0" index="0" speed="13.89" length="20.80" shape="14.51,9.57 35.31,9.57"/>
        <lane id=":J3_13_1" index="1" speed="13.89" length="20.80" shape="14.51,12.77 35.31,12.77"/>
    </edge>
    <edge id=":J3_15" function="internal">
        <lane id=":J3_15_0" index="0" speed="9.26" length="19.35" shape="14.51,12.77 19.76,13.52 23.51,15.77 25.76,19.52 26.51,24.77"/>
    </edge>
    <edge id=":J4_0" function="internal">
        <lane id=":J4_0_0" index="0" speed="6.51" length="9.03" shape="-43.98,24.77 -44.33,22.32 -45.38,20.57 -47.13,19.52 -49.58,19.17"/>
    </edge>
    <edge id=":J4_1" function="internal">
        <lane id=":J4_1_0" index="0" speed="13.89" length="20.80" shape="-43.98,24.77 -43.98,3.97"/>
        <lane id=":J4_1_1" index="1" speed="13.89" length="20.80" shape="-40.78,24.77 -40.78,3.97"/>
    </edge>
    <edge id=":J4_3" function="internal">
        <lane id=":J4_3_0" index="0" speed="9.26" length="19.35" shape="-40.78,24.77 -40.03,19.52 -37.78,15.77 -34.03,13.52 -28.78,12.77"/>
    </edge>
    <edge id=":J4_4" function="internal">
        <lane id=":J4_4_0" index="0" speed="6.51" length="9.03" shape="-28.78,19.17 -31.23,19.52 -32.98,20.57 -34.03,22.32 -34.38,24.77"/>
    </edge>
    <edge id=":J4_5" function="internal">
        <lane id=":J4_5_0" index="0" speed="13.89" length="20.80" shape="-28.78,19.17 -49.58,19.17"/>
        <lane id=":J4_5_1" index="1" speed="13.89" length="20.80" shape="-28.78,15.97 -49.58,15.97"/>
    </edge>
    <edge id=":J4_7" function="internal">
        <lane id=":J4_7_0" index="0" speed="9.26" length="5.01" shape="-28.78,15.97 -33.74,15.26"/>
    </edge>
    <edge id=":J4_16" function="internal">
        <lane id=":J4_16_0" index="0" speed="9.26" length="14.34" shape="-33.74,15.26 -34.03,15.22 -37.78,12.97 -40.03,9.22 -40.78,3.97"/>
    </edge>
    <edge id=":J4_8" function="internal">
        <lane id=":J4_8_0" index="0" speed="6.51" length="9.03" shape="-34.38,3.97 -34.03,6.42 -32.98,8.17 -31.23,9.22 -28.78,9.57"/>
    </edge>
    <edge id=":J4_9" function="internal">
        <lane id=":J4_9_0" index="0" speed="13.89" length="20.80" shape="-34.38,3.97 -34.38,24.77"/>
        <lane id=":J4_9_1" index="1" speed="13.89" length="20.80" shape="-37.58,3.97 -37.58,24.77"/>
    </edge>
    <edge id=":J4_11" function="internal">
        <lane id=":J4_11_0" index="0" speed="9.26" length="19.35" shape="-37.58,3.97 -38.33,9.22 -40.58,12.97 -44.33,15.22 -49.58,15.97"/>
    </edge>
    <edge id=":J4_12" function="internal">
        <lane id=":J4_12_0" index="0" speed="6.51" length="9.03" shape="-49.58,9.57 -47.13,9.22 -45.38,8.17 -44.33,6.42 -43.98,3.97"/>
    </edge>
    <edge id=":J4_13" function="internal">
        <lane id=":J4_13_0" index="0" speed="13.89" length="20.80" shape="-49.58,9.57 -28.78,9.57"/>
        <lane id=":J4_13_1" index="1" speed="13.89" length="20.80" shape="-49.58,12.77 -28.78,12.77"/>
    </edge>
    <edge id=":J4_15" function="internal">
        <lane id=":J4_15_0" index="0" speed="9.26" length="5.01" shape="-49.58,12.77 -44.62,13.48"/>
    </edge>
    <edge id=":J4_17" function="internal">
        <lane id=":J4_17_0" index="0" speed="9.26" length="14.34" shape="-44.62,13.48 -44.33,13.52 -40.58,15.77 -38.33,19.52 -37.58,24.77"/>
    </edge>

    <edge id="-E0" from="J2" to="J1" priority="-1">
        <lane id="-E0_0" index="0" speed="13.89" length="43.29" shape="14.51,71.10 -28.78,71.10"/>
        <lane id="-E0_1" index="1" speed="13.89" length="43.29" shape="14.51,67.90 -28.78,67.90"/>
    </edge>
    <edge id="-E1" from="J3" to="J2" priority="-1">
        <lane id="-E1_0" index="0" speed="13.89" length="31.13" shape="29.71,24.77 29.71,55.90"/>
        <lane id="-E1_1" index="1" speed="13.89" length="31.13" shape="26.51,24.77 26.51,55.90"/>
    </edge>
    <edge id="-E10" from="J1" to="J11" priority="-1">
        <lane id="-E10_0" index="0" speed="13.89" length="18.34" shape="-49.58,71.10 -67.92,71.10"/>
        <lane id="-E10_1" index="1" speed="13.89" length="18.34" shape="-49.58,67.90 -67.92,67.90"/>
    </edge>
    <edge id="-E11" from="J12" to="J4" priority="-1">
        <lane id="-E11_0" index="0" speed="13.89" length="18.34" shape="-67.92,9.57 -49.58,9.57"/>
        <lane id="-E11_1" index="1" speed="13.89" length="18.34" shape="-67.92,12.77 -49.58,12.77"/>
    </edge>
    <edge id="-E2" from="J4" to="J3" priority="-1">
        <lane id="-E2_0" index="0" speed="13.89" length="43.29" shape="-28.78,9.57 14.51,9.57"/>
        <lane id="-E2_1" index="1" speed="13.89" length="43.29" shape="-28.78,12.77 14.51,12.77"/>
    </edge>
    <edge id="-E3" from="J1" to="J4" priority="-1">
        <lane id="-E3_0" index="0" speed="13.89" length="31.13" shape="-43.98,55.90 -43.98,24.77"/>
        <lane id="-E3_1" index="1" speed="13.89" length="31.13" shape="-40.78,55.90 -40.78,24.77"/>
    </edge>
    <edge id="-E4" from="J5" to="J1" priority="-1">
        <lane id="-E4_0" index="0" speed="13.89" length="15.20" shape="-43.98,91.90 -43.98,76.70"/>
        <lane id="-E4_1" index="1" speed="13.89" length="15.20" shape="-40.78,91.90 -40.78,76.70"/>
    </edge>
    <edge id="-E5" from="J6" to="J2" priority="-1">
        <lane id="-E5_0" index="0" speed="13.89" length="17.36" shape="52.67,71.10 35.31,71.10"/>
        <lane id="-E5_1" index="1" speed="13.89" length="17.36" shape="52.67,67.90 35.31,67.90"/>
    </edge>
    <edge id="-E6" from="J7" to="J3" priority="-1">
        <lane id="-E6_0" index="0" speed="13.89" length="19.57" shape="54.88,19.17 35.31,19.17"/>
        <lane id="-E6_1" index="1" speed="13.89" length="19.57" shape="54.88,15.97 35.31,15.97"/>
    </edge>
    <edge id="-E7" from="J2" to="J8" priority="-1">
        <lane id="-E7_0" index="0" speed="13.89" length="15.20" shape="29.71,76.70 29.71,91.90"/>
        <lane id="-E7_1" index="1" speed="13.89" length="15.20" shape="26.51,76.70 26.51,91.90"/>
    </edge>
    <edge id="-E8" from="J9" to="J3" priority="-1">
        <lane id="-E8_0" index="0" speed="13.89" length="20.99" shape="29.71,-17.02 29.71,3.97"/>
        <lane id="-E8_1" index="1" speed="13.89" length="20.99" shape="26.51,-17.02 26.51,3.97"/>
    </edge>
    <edge id="-E9" from="J4" to="J10" priority="-1">
        <lane id="-E9_0" index="0" speed="13.89" length="20.74" shape="-43.98,3.97 -43.98,-16.77"/>
        <lane id="-E9_1" index="1" speed="13.89" length="20.74" shape="-40.78,3.97 -40.78,-16.77"/>
    </edge>
    <edge id="E0" from="J1" to="J2" priority="-1">
        <lane id="E0_0" index="0" speed="13.89" length="43.29" shape="-28.78,61.50 14.51,61.50"/>
        <lane id="E0_1" index="1" speed="13.89" length="43.29" shape="-28.78,64.70 14.51,64.70"/>
    </edge>
    <edge id="E1" from="J2" to="J3" priority="-1">
        <lane id="E1_0" index="0" speed="13.89" length="31.13" shape="20.11,55.90 20.11,24.77"/>
        <lane id="E1_1" index="1" speed="13.89" length="31.13" shape="23.31,55.90 23.31,24.77"/>
    </edge>
    <edge id="E10" from="J11" to="J1" priority="-1">
        <lane id="E10_0" index="0" speed="13.89" length="18.34" shape="-67.92,61.50 -49.58,61.50"/>
        <lane id="E10_1" index="1" speed="13.89" length="18.34" shape="-67.92,64.70 -49.58,64.70"/>
    </edge>
    <edge id="E11" from="J4" to="J12" priority="-1">
        <lane id="E11_0" index="0" speed="13.89" length="18.34" shape="-49.58,19.17 -67.92,19.17"/>
        <lane id="E11_1" index="1" speed="13.89" length="18.34" shape="-49.58,15.97 -67.92,15.97"/>
    </edge>
    <edge id="E2" from="J3" to="J4" priority="-1">
        <lane id="E2_0" index="0" speed="13.89" length="43.29" shape="14.51,19.17 -28.78,19.17"/>
        <lane id="E2_1" index="1" speed="13.89" length="43.29" shape="14.51,15.97 -28.78,15.97"/>
    </edge>
    <edge id="E3" from="J4" to="J1" priority="-1">
        <lane id="E3_0" index="0" speed="13.89" length="31.13" shape="-34.38,24.77 -34.38,55.90"/>
        <lane id="E3_1" index="1" speed="13.89" length="31.13" shape="-37.58,24.77 -37.58,55.90"/>
    </edge>
    <edge id="E4" from="J1" to="J5" priority="-1">
        <lane id="E4_0" index="0" speed="13.89" length="15.20" shape="-34.38,76.70 -34.38,91.90"/>
        <lane id="E4_1" index="1" speed="13.89" length="15.20" shape="-37.58,76.70 -37.58,91.90"/>
    </edge>
    <edge id="E5" from="J2" to="J6" priority="-1">
        <lane id="E5_0" index="0" speed="13.89" length="17.36" shape="35.31,61.50 52.67,61.50"/>
        <lane id="E5_1" index="1" speed="13.89" length="17.36" shape="35.31,64.70 52.67,64.70"/>
    </edge>
    <edge id="E6" from="J3" to="J7" priority="-1">
        <lane id="E6_0" index="0" speed="13.89" length="19.57" shape="35.31,9.57 54.88,9.57"/>
        <lane id="E6_1" index="1" speed="13.89" length="19.57" shape="35.31,12.77 54.88,12.77"/>
    </edge>
    <edge id="E7" from="J8" to="J2" priority="-1">
        <lane id="E7_0" index="0" speed="13.89" length="15.20" shape="20.11,91.90 20.11,76.70"/>
        <lane id="E7_1" index="1" speed="13.89" length="15.20" shape="23.31,91.90 23.31,76.70"/>
    </edge>
    <edge id="E8" from="J3" to="J9" priority="-1">
        <lane id="E8_0" index="0" speed="13.89" length="20.99" shape="20.11,3.97 20.11,-17.02"/>
        <lane id="E8_1" index="1" speed="13.89" length="20.99" shape="23.31,3.97 23.31,-17.02"/>
    </edge>
    <edge id="E9" from="J10" to="J4" priority="-1">
        <lane id="E9_0" index="0" speed="13.89" length="20.74" shape="-34.38,-16.77 -34.38,3.97"/>
        <lane id="E9_1" index="1" speed="13.89" length="20.74" shape="-37.58,-16.77 -37.58,3.97"/>
    </edge>

    <junction id="J1" type="priority" x="-39.18" y="66.30" incLanes="-E4_0 -E4_1 -E0_0 -E0_1 E3_0 E3_1 E10_0 E10_1" intLanes=":J1_0_0 :J1_1_0 :J1_1_1 :J1_16_0 :J1_4_0 :J1_5_0 :J1_5_1 :J1_7_0 :J1_8_0 :J1_9_0 :J1_9_1 :J1_17_0 :J1_12_0 :J1_13_0 :J1_13_1 :J1_15_0" shape="-45.58,76.70 -32.78,76.70 -32.34,74.47 -31.78,73.70 -31.00,73.14 -30.00,72.81 -28.78,72.70 -28.78,59.90 -31.00,59.45 -31.78,58.90 -32.34,58.12 -32.67,57.12 -32.78,55.90 -45.58,55.90 -46.02,58.12 -46.58,58.90 -47.36,59.45 -48.36,59.79 -49.58,59.90 -49.58,72.70 -47.36,73.14 -46.58,73.70 -46.02,74.48 -45.69,75.48">
        <request index="0"  response="0000000000000000" foes="0000000001100000" cont="0"/>
        <request index="1"  response="0000000000000000" foes="1111100011100000" cont="0"/>
        <request index="2"  response="0000000000000000" foes="1111100011100000" cont="0"/>
        <request index="3"  response="0000011000000000" foes="1110011011100000" cont="1"/>
        <request index="4"  response="0000011000000000" foes="0000011000000000" cont="0"/>
        <request index="5"  response="0000111000001111" foes="1000111000001111" cont="0"/>
        <request index="6"  response="0000111000001111" foes="1000111000001111" cont="0"/>
        <request index="7"  response="0110111000001110" foes="0110111000001110" cont="0"/>
        <request index="8"  response="0000000000000000" foes="0110000000000000" cont="0"/>
        <request index="9"  response="0000000000000000" foes="1110000011111000" cont="0"/>
        <request index="10" response="0000000000000000" foes="1110000011111000" cont="0"/>
        <request index="11" response="0000000000000110" foes="1110000011100110" cont="1"/>
        <request index="12" response="0000000000000110" foes="0000000000000110" cont="0"/>
        <request index="13" response="0000111100001110" foes="0000111110001110" cont="0"/>
        <request index="14" response="0000111100001110" foes="0000111110001110" cont="0"/>
        <request index="15" response="0000111001101110" foes="0000111001101110" cont="0"/>
    </junction>
    <junction id="J10" type="dead_end" x="-39.18" y="-16.77" incLanes="-E9_0 -E9_1" intLanes="" shape="-39.18,-16.77 -45.58,-16.77 -39.18,-16.77"/>
    <junction id="J11" type="dead_end" x="-67.92" y="66.30" incLanes="-E10_0 -E10_1" intLanes="" shape="-67.92,66.30 -67.92,72.70 -67.92,66.30"/>
    <junction id="J12" type="dead_end" x="-67.92" y="14.37" incLanes="E11_0 E11_1" intLanes="" shape="-67.92,14.37 -67.92,20.77 -67.92,14.37"/>
    <junction id="J2" type="priority" x="24.91" y="66.30" incLanes="E7_0 E7_1 -E5_0 -E5_1 -E1_0 -E1_1 E0_0 E0_1" intLanes=":J2_0_0 :J2_1_0 :J2_1_1 :J2_16_0 :J2_4_0 :J2_5_0 :J2_5_1 :J2_7_0 :J2_8_0 :J2_9_0 :J2_9_1 :J2_17_0 :J2_12_0 :J2_13_0 :J2_13_1 :J2_15_0" shape="18.51,76.70 31.31,76.70 31.75,74.48 32.31,73.70 33.09,73.14 34.09,72.81 35.31,72.70 35.31,59.90 33.09,59.46 32.31,58.90 31.75,58.12 31.42,57.12 31.31,55.90 18.51,55.90 18.07,58.12 17.51,58.90 16.73,59.46 15.73,59.79 14.51,59.90 14.51,72.70 16.73,73.14 17.51,73.70 18.07,74.48 18.40,75.48">
        <request index="0"  response="0000000000000000" foes="0000000001100000" cont="0"/>
        <request index="1"  response="0000000000000000" foes="1111100011100000" cont="0"/>
        <request index="2"  response="0000000000000000" foes="1111100011100000" cont="0"/>
        <request index="3"  response="0000011000000000" foes="1110011011100000" cont="1"/>
        <request index="4"  response="0000011000000000" foes="0000011000000000" cont="0"/>
        <request index="5"  response="0000111000001111" foes="1000111000001111" cont="0"/>
        <request index="6"  response="0000111000001111" foes="1000111000001111" cont="0"/>
        <request index="7"  response="0110111000001110" foes="0110111000001110" cont="0"/>
        <request index="8"  response="0000000000000000" foes="0110000000000000" cont="0"/>
        <request index="9"  response="0000000000000000" foes="1110000011111000" cont="0"/>
        <request index="10" response="0000000000000000" foes="1110000011111000" cont="0"/>
        <request index="11" response="0000000000000110" foes="1110000011100110" cont="1"/>
        <request index="12" response="0000000000000110" foes="0000000000000110" cont="0"/>
        <request index="13" response="0000111100001110" foes="0000111110001110" cont="0"/>
        <request index="14" response="0000111100001110" foes="0000111110001110" cont="0"/>
        <request index="15" response="0000111001101110" foes="0000111001101110" cont="0"/>
    </junction>
    <junction id="J3" type="priority" x="24.91" y="14.37" incLanes="E1_0 E1_1 -E6_0 -E6_1 -E8_0 -E8_1 -E2_0 -E2_1" intLanes=":J3_0_0 :J3_1_0 :J3_1_1 :J3_16_0 :J3_4_0 :J3_5_0 :J3_5_1 :J3_7_0 :J3_8_0 :J3_9_0 :J3_9_1 :J3_17_0 :J3_12_0 :J3_13_0 :J3_13_1 :J3_15_0" shape="18.51,24.77 31.31,24.77 31.75,22.55 32.31,21.77 33.09,21.21 34.09,20.88 35.31,20.77 35.31,7.97 33.09,7.53 32.31,6.97 31.75,6.19 31.42,5.19 31.31,3.97 18.51,3.97 18.07,6.19 17.51,6.97 16.73,7.53 15.73,7.86 14.51,7.97 14.51,20.77 16.73,21.21 17.51,21.77 18.07,22.55 18.40,23.55">
        <request index="0"  response="0000000000000000" foes="0000000001100000" cont="0"/>
        <request index="1"  response="0000000000000000" foes="1111100011100000" cont="0"/>
        <request index="2"  response="0000000000000000" foes="1111100011100000" cont="0"/>
        <request index="3"  response="0000011000000000" foes="1110011011100000" cont="1"/>
        <request index="4"  response="0000011000000000" foes="0000011000000000" cont="0"/>
        <request index="5"  response="0000111000001111" foes="1000111000001111" cont="0"/>
        <request index="6"  response="0000111000001111" foes="1000111000001111" cont="0"/>
        <request index="7"  response="0110111000001110" foes="0110111000001110" cont="0"/>
        <request index="8"  response="0000000000000000" foes="0110000000000000" cont="0"/>
        <request index="9"  response="0000000000000000" foes="1110000011111000" cont="0"/>
        <request index="10" response="0000000000000000" foes="1110000011111000" cont="0"/>
        <request index="11" response="0000000000000110" foes="1110000011100110" cont="1"/>
        <request index="12" response="0000000000000110" foes="0000000000000110" cont="0"/>
        <request index="13" response="0000111100001110" foes="0000111110001110" cont="0"/>
        <request index="14" response="0000111100001110" foes="0000111110001110" cont="0"/>
        <request index="15" response="0000111001101110" foes="0000111001101110" cont="0"/>
    </junction>
    <junction id="J4" type="priority" x="-39.18" y="14.37" incLanes="-E3_0 -E3_1 E2_0 E2_1 E9_0 E9_1 -E11_0 -E11_1" intLanes=":J4_0_0 :J4_1_0 :J4_1_1 :J4_3_0 :J4_4_0 :J4_5_0 :J4_5_1 :J4_16_0 :J4_8_0 :J4_9_0 :J4_9_1 :J4_11_0 :J4_12_0 :J4_13_0 :J4_13_1 :J4_17_0" shape="-45.58,24.77 -32.78,24.77 -32.34,22.55 -31.78,21.77 -31.00,21.21 -30.00,20.88 -28.78,20.77 -28.78,7.97 -31.00,7.53 -31.78,6.97 -32.34,6.19 -32.67,5.19 -32.78,3.97 -45.58,3.97 -46.02,6.19 -46.58,6.97 -47.36,7.53 -48.36,7.86 -49.58,7.97 -49.58,20.77 -47.36,21.21 -46.58,21.77 -46.02,22.55 -45.69,23.55">
        <request index="0"  response="0000000001100000" foes="0000000001100000" cont="0"/>
        <request index="1"  response="1111000011100000" foes="1111100011100000" cont="0"/>
        <request index="2"  response="1111000011100000" foes="1111100011100000" cont="0"/>
        <request index="3"  response="1110011011100000" foes="1110011011100000" cont="0"/>
        <request index="4"  response="0000000000000000" foes="0000011000000000" cont="0"/>
        <request index="5"  response="0000000000000000" foes="1000111000001111" cont="0"/>
        <request index="6"  response="0000000000000000" foes="1000111000001111" cont="0"/>
        <request index="7"  response="0110000000000000" foes="0110111000001110" cont="1"/>
        <request index="8"  response="0110000000000000" foes="0110000000000000" cont="0"/>
        <request index="9"  response="1110000011110000" foes="1110000011111000" cont="0"/>
        <request index="10" response="1110000011110000" foes="1110000011111000" cont="0"/>
        <request index="11" response="1110000011100110" foes="1110000011100110" cont="0"/>
        <request index="12" response="0000000000000000" foes="0000000000000110" cont="0"/>
        <request index="13" response="0000000000000000" foes="0000111110001110" cont="0"/>
        <request index="14" response="0000000000000000" foes="0000111110001110" cont="0"/>
        <request index="15" response="0000000001100000" foes="0000111001101110" cont="1"/>
    </junction>
    <junction id="J5" type="dead_end" x="-39.18" y="91.90" incLanes="E4_0 E4_1" intLanes="" shape="-39.18,91.90 -32.78,91.90 -39.18,91.90"/>
    <junction id="J6" type="dead_end" x="52.67" y="66.30" incLanes="E5_0 E5_1" intLanes="" shape="52.67,66.30 52.67,59.90 52.67,66.30"/>
    <junction id="J7" type="dead_end" x="54.88" y="14.37" incLanes="E6_0 E6_1" intLanes="" shape="54.88,14.37 54.88,7.97 54.88,14.37"/>
    <junction id="J8" type="dead_end" x="24.91" y="91.90" incLanes="-E7_0 -E7_1" intLanes="" shape="24.91,91.90 31.31,91.90 24.91,91.90"/>
    <junction id="J9" type="dead_end" x="24.91" y="-17.02" incLanes="E8_0 E8_1" intLanes="" shape="24.91,-17.02 18.51,-17.02 24.91,-17.02"/>

    <junction id=":J1_16_0" type="internal" x="-40.07" y="71.73" incLanes=":J1_3_0 E3_0 E3_1" intLanes=":J1_5_0 :J1_5_1 :J1_7_0 :J1_8_0 :J1_9_0 :J1_9_1 :J1_13_0 :J1_13_1 :J1_15_0"/>
    <junction id=":J1_17_0" type="internal" x="-38.29" y="60.86" incLanes=":J1_11_0 -E4_0 -E4_1" intLanes=":J1_0_0 :J1_1_0 :J1_1_1 :J1_5_0 :J1_5_1 :J1_7_0 :J1_13_0 :J1_13_1 :J1_15_0"/>
    <junction id=":J2_16_0" type="internal" x="24.02" y="71.74" incLanes=":J2_3_0 -E1_0 -E1_1" intLanes=":J2_5_0 :J2_5_1 :J2_7_0 :J2_8_0 :J2_9_0 :J2_9_1 :J2_13_0 :J2_13_1 :J2_15_0"/>
    <junction id=":J2_17_0" type="internal" x="25.80" y="60.86" incLanes=":J2_11_0 E7_0 E7_1" intLanes=":J2_0_0 :J2_1_0 :J2_1_1 :J2_5_0 :J2_5_1 :J2_7_0 :J2_13_0 :J2_13_1 :J2_15_0"/>
    <junction id=":J3_16_0" type="internal" x="24.02" y="19.81" incLanes=":J3_3_0 -E8_0 -E8_1" intLanes=":J3_5_0 :J3_5_1 :J3_7_0 :J3_8_0 :J3_9_0 :J3_9_1 :J3_13_0 :J3_13_1 :J3_15_0"/>
    <junction id=":J3_17_0" type="internal" x="25.80" y="8.93" incLanes=":J3_11_0 E1_0 E1_1" intLanes=":J3_0_0 :J3_1_0 :J3_1_1 :J3_5_0 :J3_5_1 :J3_7_0 :J3_13_0 :J3_13_1 :J3_15_0"/>
    <junction id=":J4_16_0" type="internal" x="-33.74" y="15.26" incLanes=":J4_7_0 -E11_0 -E11_1" intLanes=":J4_1_0 :J4_1_1 :J4_3_0 :J4_9_0 :J4_9_1 :J4_11_0 :J4_12_0 :J4_13_0 :J4_13_1"/>
    <junction id=":J4_17_0" type="internal" x="-44.62" y="13.48" incLanes=":J4_15_0 E2_0 E2_1" intLanes=":J4_1_0 :J4_1_1 :J4_3_0 :J4_4_0 :J4_5_0 :J4_5_1 :J4_9_0 :J4_9_1 :J4_11_0"/>

    <connection from="-E0" to="E4" fromLane="0" toLane="0" via=":J1_4_0" dir="r" state="m"/>
    <connection from="-E0" to="-E10" fromLane="0" toLane="0" via=":J1_5_0" dir="s" state="m"/>
    <connection from="-E0" to="-E10" fromLane="1" toLane="1" via=":J1_5_1" dir="s" state="m"/>
    <connection from="-E0" to="-E3" fromLane="1" toLane="1" via=":J1_7_0" dir="l" state="m"/>
    <connection from="-E1" to="E5" fromLane="0" toLane="0" via=":J2_8_0" dir="r" state="M"/>