<?xml version="1.0" encoding="UTF-8"?>

<!-- generated on 2022-03-15 15:16:45 by Eclipse SUMO netedit Version 1.12.0
<configuration xmlns:xsi="http://www.w3.org/2001/XMLSchema-instance" xsi:noNamespaceSchemaLocation="http://sumo.dlr.de/xsd/netconvertConfiguration.xsd">

    <input>
        <sumo-net-file value="map.net.xml"/>
    </input>

    <output>
        <output-file value="map.net.xml"/>
    </output>

    <processing>
        <geometry.min-radius.fix.railways value="false"/>
        <geometry.max-grade.fix value="false"/>
        <offset.disable-normalization value="true"/>
        <lefthand value="false"/>
    </processing>

    <junctions>
        <no-turnarounds value="true"/>
        <junctions.corner-detail value="5"/>
        <junctions.limit-turn-speed value="5.5"/>
        <rectangular-lane-cut value="false"/>
    </junctions>

    <pedestrian>
        <walkingareas value="false"/>
    </pedestrian>

    <report>
        <aggregate-warnings value="5"/>
    </report>

</configuration>
-->

<net version="1.9" junctionCornerDetail="5" limitTurnSpeed="5.50" xmlns:xsi="http://www.w3.org/2001/XMLSchema-instance" xsi:noNamespaceSchemaLocation="http://sumo.dlr.de/xsd/net_file.xsd">

    <location netOffset="0.00,0.00" convBoundary="-67.92,-17.28,129.10,91.90" origBoundary="-10000000000.00,-10000000000.00,10000000000.00,10000000000.00" projParameter="!"/>

    <edge id=":J1_0" function="internal">
        <lane id=":J1_0_0" index="0" speed="6.51" length="9.03" shape="-43.98,76.70 -44.33,74.25 -45.38,72.50 -47.13,71.45 -49.58,71.10"/>
    </edge>
    <edge id=":J1_1" function="internal">
        <lane id=":J1_1_0" index="0" speed="13.89" length="20.80" shape="-43.98,76.70 -43.98,55.90"/>
        <lane id=":J1_1_1" index="1" speed="13.89" length="20.80" shape="-40.78,76.70 -40.78,55.90"/>
    </edge>
    <edge id=":J1_3" function="internal">
        <lane id=":J1_3_0" index="0" speed="9.26" length="5.01" shape="-40.78,76.70 -40.07,71.74"/>
    </edge>
    <edge id=":J1_16" function="internal">
        <lane id=":J1_16_0" index="0" speed="9.26" length="14.34" shape="-40.07,71.74 -40.03,71.45 -37.78,67.70 -34.03,65.45 -28.78,64.70"/>
    </edge>
    <edge id=":J1_4" function="internal">
        <lane id=":J1_4_0" index="0" speed="6.51" length="9.03" shape="-28.78,71.10 -31.23,71.45 -32.98,72.50 -34.03,74.25 -34.38,76.70"/>
    </edge>
    <edge id=":J1_5" function="internal">
        <lane id=":J1_5_0" index="0" speed="13.89" length="20.80" shape="-28.78,71.10 -49.58,71.10"/>
        <lane id=":J1_5_1" index="1" speed="13.89" length="20.80" shape="-28.78,67.90 -49.58,67.90"/>
    </edge>
    <edge id=":J1_7" function="internal">
        <lane id=":J1_7_0" index="0" speed="9.26" length="19.35" shape="-28.78,67.90 -34.03,67.15 -37.78,64.90 -40.03,61.15 -40.78,55.90"/>
    </edge>
    <edge id=":J1_8" function="internal">
        <lane id=":J1_8_0" index="0" speed="6.51" length="9.03" shape="-34.38,55.90 -34.03,58.35 -32.98,60.10 -31.23,61.15 -28.78,61.50"/>
    </edge>
    <edge id=":J1_9" function="internal">
        <lane id=":J1_9_0" index="0" speed="13.89" length="20.80" shape="-34.38,55.90 -34.38,76.70"/>
        <lane id=":J1_9_1" index="1" speed="13.89" length="20.80" shape="-37.58,55.90 -37.58,76.70"/>
    </edge>
    <edge id=":J1_11" function="internal">
        <lane id=":J1_11_0" index="0" speed="9.26" length="5.01" shape="-37.58,55.90 -38.29,60.86"/>
    </edge>
    <edge id=":J1_17" function="internal">
        <lane id=":J1_17_0" index="0" speed="9.26" length="14.34" shape="-38.29,60.86 -38.33,61.15 -40.58,64.90 -44.33,67.15 -49.58,67.90"/>
    </edge>
    <edge id=":J1_12" function="internal">
        <lane id=":J1_12_0" index="0" speed="6.51" length="9.03" shape="-49.58,61.50 -47.13,61.15 -45.38,60.10 -44.33,58.35 -43.98,55.90"/>
    </edge>
    <edge id=":J1_13" function="internal">
        <lane id=":J1_13_0" index="0" speed="13.89" length="20.80" shape="-49.58,61.50 -28.78,61.50"/>
        <lane id=":J1_13_1" index="1" speed="13.89" length="20.80" shape="-49.58,64.70 -28.78,64.70"/>
    </edge>
    <edge id=":J1_15" function="internal">
        <lane id=":J1_15_0" index="0" speed="9.26" length="19.35" shape="-49.58,64.70 -44.33,65.45 -40.58,67.70 -38.33,71.45 -37.58,76.70"/>
    </edge>
    <edge id=":J2_0" function="internal">
        <lane id=":J2_0_0" index="0" speed="6.51" length="9.03" shape="20.11,76.70 19.76,74.25 18.71,72.50 16.96,71.45 14.51,71.10"/>
    </edge>
    <edge id=":J2_1" function="internal">
        <lane id=":J2_1_0" index="0" speed="13.89" length="20.80" shape="20.11,76.70 20.11,55.90"/>
        <lane id=":J2_1_1" index="1" speed="13.89" length="20.80" shape="23.31,76.70 23.31,55.90"/>
    </edge>
    <edge id=":J2_3" function="internal">
        <lane id=":J2_3_0" index="0" speed="9.26" length="5.01" shape="23.31,76.70 24.02,71.74"/>
    </edge>
    <edge id=":J2_16" function="internal">
        <lane id=":J2_16_0" index="0" speed="9.26" length="14.34" shape="24.02,71.74 24.06,71.45 26.31,67.70 30.06,65.45 35.31,64.70"/>
    </edge>
    <edge id=":J2_4" function="internal">
        <lane id=":J2_4_0" index="0" speed="6.51" length="9.03" shape="35.31,71.10 32.86,71.45 31.11,72.50 30.06,74.25 29.71,76.70"/>
    </edge>
    <edge id=":J2_5" function="internal">
        <lane id=":J2_5_0" index="0" speed="13.89" length="20.80" shape="35.31,71.10 14.51,71.10"/>
        <lane id=":J2_5_1" index="1" speed="13.89" length="20.80" shape="35.31,67.90 14.51,67.90"/>
    </edge>
    <edge id=":J2_7" function="internal">
        <lane id=":J2_7_0" index="0" speed="9.26" length="19.35" shape="35.31,67.90 30.06,67.15 26.31,64.90 24.06,61.15 23.31,55.90"/>
    </edge>
    <edge id=":J2_8" function="internal">
        <lane id=":J2_8_0" index="0" speed="6.51" length="9.03" shape="29.71,55.90 30.06,58.35 31.11,60.10 32.86,61.15 35.31,61.50"/>
    </edge>
    <edge id=":J2_9" function="internal">
        <lane id=":J2_9_0" index="0" speed="13.89" length="20.80" shape="29.71,55.90 29.71,76.70"/>
        <lane id=":J2_9_1" index="1" speed="13.89" length="20.80" shape="26.51,55.90 26.51,76.70"/>
    </edge>
    <edge id=":J2_11" function="internal">
        <lane id=":J2_11_0" index="0" speed="9.26" length="5.01" shape="26.51,55.90 25.80,60.86"/>
    </edge>
    <edge id=":J2_17" function="internal">
        <lane id=":J2_17_0" index="0" speed="9.26" length="14.34" shape="25.80,60.86 25.76,61.15 23.51,64.90 19.76,67.15 14.51,67.90"/>
    </edge>
    <edge id=":J2_12" function="internal">
        <lane id=":J2_12_0" index="0" speed="6.51" length="9.03" shape="14.51,61.50 16.96,61.15 18.71,60.10 19.76,58.35 20.11,55.90"/>
    </edge>
    <edge id=":J2_13" function="internal">
        <lane id=":J2_13_0" index="0" speed="13.89" length="20.80" shape="14.51,61.50 35.31,61.50"/>
        <lane id=":J2_13_1" index="1" speed="13.89" length="20.80" shape="14.51,64.70 35.31,64.70"/>
    </edge>
    <edge id=":J2_15" function="internal">
        <lane id=":J2_15_0" index="0" speed="9.26" length="19.35" shape="14.51,64.70 19.76,65.45 23.51,67.70 25.76,71.45 26.51,76.70"/>
    </edge>
    <edge id=":J3_0" function="internal">
        <lane id=":J3_0_0" index="0" speed="6.51" length="9.03" shape="20.11,24.77 19.76,22.32 18.71,20.57 16.96,19.52 14.51,19.17"/>
    </edge>
    <edge id=":J3_1" function="internal">
        <lane id=":J3_1_0" index="0" speed="13.89" length="20.80" shape="20.11,24.77 20.11,3.97"/>
        <lane id=":J3_1_1" index="1" speed="13.89" length="20.80" shape="23.31,24.77 23.31,3.97"/>
    </edge>
    <edge id=":J3_3" function="internal">
        <lane id=":J3_3_0" index="0" speed="9.26" length="5.01" shape="23.31,24.77 24.02,19.81"/>
    </edge>
    <edge id=":J3_16" function="internal">
        <lane id=":J3_16_0" index="0" speed="9.26" length="14.34" shape="24.02,19.81 24.06,19.52 26.31,15.77 30.06,13.52 35.31,12.77"/>
    </edge>
    <edge id=":J3_4" function="internal">
        <lane id=":J3_4_0" index="0" speed="6.51" length="9.03" shape="35.31,19.17 32.86,19.52 31.11,20.57 30.06,22.32 29.71,24.77"/>
    </edge>
    <edge id=":J3_5" function="internal">
        <lane id=":J3_5_0" index="0" speed="13.89" length="20.80" shape="35.31,19.17 14.51,19.17"/>
        <lane id=":J3_5_1" index="1" speed="13.89" length="20.80" shape="35.31,15.97 14.51,15.97"/>
    </edge>
    <edge id=":J3_7" function="internal">
        <lane id=":J3_7_0" index="0" speed="9.26" length="19.35" shape="35.31,15.97 30.06,15.22 26.31,12.97 24.06,9.22 23.31,3.97"/>
    </edge>
    <edge id=":J3_8" function="internal">
        <lane id=":J3_8_0" index="0" speed="6.51" length="9.03" shape="29.71,3.97 30.06,6.42 31.11,8.17 32.86,9.22 35.31,9.57"/>
    </edge>
    <edge id=":J3_9" function="internal">
        <lane id=":J3_9_0" index="0" speed="13.89" length="20.80" shape="29.71,3.97 29.71,24.77"/>
        <lane id=":J3_9_1" index="1" speed="13.89" length="20.80" shape="26.51,3.97 26.51,24.77"/>
    </edge>
    <edge id=":J3_11" function="internal">
        <lane id=":J3_11_0" index="0" speed="9.26" length="5.01" shape="26.51,3.97 25.80,8.93"/>
    </edge>
    <edge id=":J3_17" function="internal">
        <lane id=":J3_17_0" index="0" speed="9.26" length="14.34" shape="25.80,8.93 25.76,9.22 23.51,12.97 19.76,15.22 14.51,15.97"/>
    </edge>
    <edge id=":J3_12" function="internal">
        <lane id=":J3_12_0" index="0" speed="6.51" length="9.03" shape="14.51,9.57 16.96,9.22 18.71,8.17 19.76,6.42 20.11,3.97"/>
    </edge>
    <edge id=":J3_13" function="internal">
        <lane id=":J3_13_0" index="0" speed="13.89" length="20.80" shape="14.51,9.57 35.31,9.57"/>
        <lane id=":J3_13_1" index="1" speed="13.89" length="20.80" shape="14.51,12.77 35.31,12.77"/>
    </edge>
    <edge id=":J3_15" function="internal">
        <lane id=":J3_15_0" index="0" speed="9.26" length="19.35" shape="14.51,12.77 19.76,13.52 23.51,15.77 25.76,19.52 26.51,24.77"/>
    </edge>
    <edge id=":J4_0" function="internal">
        <lane id=":J4_0_0" index="0" speed="6.51" length="9.03" shape="-43.98,24.77 -44.33,22.32 -45.38,20.57 -47.13,19.52 -49.58,19.17"/>
    </edge>
    <edge id=":J4_1" function="internal">
        <lane id=":J4_1_0" index="0" speed="13.89" length="20.80" shape="-43.98,24.77 -43.98,3.97"/>
        <lane id=":J4_1_1" index="1" speed="13.89" length="20.80" shape="-40.78,24.77 -40.78,3.97"/>
    </edge>
    <edge id=":J4_3" function="internal">
        <lane id=":J4_3_0" index="0" speed="9.26" length="5.01" shape="-40.78,24.77 -40.07,19.81"/>
    </edge>
    <edge id=":J4_16" function="internal">
        <lane id=":J4_16_0" index="0" speed="9.26" length="14.34" shape="-40.07,19.81 -40.03,19.52 -37.78,15.77 -34.03,13.52 -28.78,12.77"/>
    </edge>
    <edge id=":J4_4" function="internal">
        <lane id=":J4_4_0" index="0" speed="6.51" length="9.03" shape="-28.78,19.17 -31.23,19.52 -32.98,20.57 -34.03,22.32 -34.38,24.77"/>
    </edge>
    <edge id=":J4_5" function="internal">
        <lane id=":J4_5_0" index="0" speed="13.89" length="20.80" shape="-28.78,19.17 -49.58,19.17"/>
        <lane id=":J4_5_1" index="1" speed="13.89" length="20.80" shape="-28.78,15.97 -49.58,15.97"/>
    </edge>
    <edge id=":J4_7" function="internal">
        <lane id=":J4_7_0" index="0" speed="9.26" length="19.35" shape="-28.78,15.97 -34.03,15.22 -37.78,12.97 -40.03,9.22 -40.78,3.97"/>
    </edge>
    <edge id=":J4_8" function="internal">
        <lane id=":J4_8_0" index="0" speed="6.51" length="9.03" shape="-34.38,3.97 -34.03,6.42 -32.98,8.17 -31.23,9.22 -28.78,9.57"/>
    </edge>
    <edge id=":J4_9" function="internal">
        <lane id=":J4_9_0" index="0" speed="13.89" length="20.80" shape="-34.38,3.97 -34.38,24.77"/>
        <lane id=":J4_9_1" index="1" speed="13.89" length="20.80" shape="-37.58,3.97 -37.58,24.77"/>
    </edge>
    <edge id=":J4_11" function="internal">
        <lane id=":J4_11_0" index="0" speed="9.26" length="5.01" shape="-37.58,3.97 -38.29,8.93"/>
    </edge>
    <edge id=":J4_17" function="internal">
        <lane id=":J4_17_0" index="0" speed="9.26" length="14.34" shape="-38.29,8.93 -38.33,9.22 -40.58,12.97 -44.33,15.22 -49.58,15.97"/>
    </edge>
    <edge id=":J4_12" function="internal">
        <lane id=":J4_12_0" index="0" speed="6.51" length="9.03" shape="-49.58,9.57 -47.13,9.22 -45.38,8.17 -44.33,6.42 -43.98,3.97"/>
    </edge>
    <edge id=":J4_13" function="internal">
        <lane id=":J4_13_0" index="0" speed="13.89" length="20.80" shape="-49.58,9.57 -28.78,9.57"/>
        <lane id=":J4_13_1" index="1" speed="13.89" length="20.80" shape="-49.58,12.77 -28.78,12.77"/>
    </edge>
    <edge id=":J4_15" function="internal">
        <lane id=":J4_15_0" index="0" speed="9.26" length="19.35" shape="-49.58,12.77 -44.33,13.52 -40.58,15.77 -38.33,19.52 -37.58,24.77"/>
    </edge>
    <edge id=":J6_0" function="internal">
        <lane id=":J6_0_0" index="0" speed="6.54" length="9.10" shape="106.31,71.10 103.85,71.45 102.09,72.51 101.02,74.28 100.66,76.75"/>
    </edge>
    <edge id=":J6_1" function="internal">
        <lane id=":J6_1_0" index="0" speed="13.89" length="20.83" shape="106.31,71.10 85.48,71.10"/>
        <lane id=":J6_1_1" index="1" speed="13.89" length="20.83" shape="106.31,67.90 85.48,67.90"/>
    </edge>
    <edge id=":J6_3" function="internal">
        <lane id=":J6_3_0" index="0" speed="9.26" length="5.01" shape="106.31,67.90 101.35,67.19"/>
    </edge>
    <edge id=":J6_16" function="internal">
        <lane id=":J6_16_0" index="0" speed="9.26" length="14.34" shape="101.35,67.19 101.06,67.15 97.31,64.90 95.06,61.15 94.31,55.90"/>
    </edge>
    <edge id=":J6_4" function="internal">
        <lane id=":J6_4_0" index="0" speed="6.51" length="9.03" shape="100.71,55.90 101.06,58.35 102.11,60.10 103.86,61.15 106.31,61.50"/>
    </edge>
    <edge id=":J6_5" function="internal">
        <lane id=":J6_5_0" index="0" speed="13.89" length="20.85" shape="100.71,55.90 100.66,76.75"/>
        <lane id=":J6_5_1" index="1" speed="13.89" length="20.85" shape="97.51,55.90 97.46,76.74"/>
    </edge>
    <edge id=":J6_7" function="internal">
        <lane id=":J6_7_0" index="0" speed="9.26" length="19.38" shape="97.51,55.90 96.76,61.15 94.50,64.90 90.74,67.15 85.48,67.90"/>
    </edge>
    <edge id=":J6_8" function="internal">
        <lane id=":J6_8_0" index="0" speed="6.52" length="9.06" shape="85.48,61.50 87.94,61.15 89.70,60.10 90.76,58.35 91.11,55.90"/>
    </edge>
    <edge id=":J6_9" function="internal">
        <lane id=":J6_9_0" index="0" speed="13.89" length="20.83" shape="85.48,61.50 106.31,61.50"/>
        <lane id=":J6_9_1" index="1" speed="13.89" length="20.83" shape="85.48,64.70 106.31,64.70"/>
    </edge>
    <edge id=":J6_11" function="internal">
        <lane id=":J6_11_0" index="0" speed="9.25" length="5.01" shape="85.48,64.70 90.44,65.41"/>
    </edge>
    <edge id=":J6_17" function="internal">
        <lane id=":J6_17_0" index="0" speed="9.25" length="14.38" shape="90.44,65.41 90.74,65.45 94.49,67.71 96.73,71.47 97.46,76.74"/>
    </edge>
    <edge id=":J6_12" function="internal">
        <lane id=":J6_12_0" index="0" speed="6.50" length="9.03" shape="91.06,76.71 90.72,74.25 89.68,72.50 87.93,71.45 85.48,71.10"/>
    </edge>
    <edge id=":J6_13" function="internal">
        <lane id=":J6_13_0" index="0" speed="13.89" length="20.82" shape="91.06,76.71 91.11,55.90"/>
        <lane id=":J6_13_1" index="1" speed="13.89" length="20.82" shape="94.26,76.72 94.31,55.90"/>
    </edge>
    <edge id=":J6_15" function="internal">
        <lane id=":J6_15_0" index="0" speed="9.28" length="19.39" shape="94.26,76.72 95.04,71.46 97.30,67.71 101.06,65.45 106.31,64.70"/>
    </edge>
    <edge id=":J7_0" function="internal">
        <lane id=":J7_0_0" index="0" speed="6.51" length="9.03" shape="91.11,24.77 90.76,22.32 89.71,20.57 87.96,19.52 85.51,19.17"/>
    </edge>
    <edge id=":J7_1" function="internal">
        <lane id=":J7_1_0" index="0" speed="13.89" length="21.00" shape="91.11,24.77 91.33,3.74"/>
        <lane id=":J7_1_1" index="1" speed="13.89" length="21.00" shape="94.31,24.77 94.53,3.81"/>
    </edge>
    <edge id=":J7_3" function="internal">
        <lane id=":J7_3_0" index="0" speed="9.28" length="19.46" shape="94.31,24.77 95.07,19.52 97.34,15.77 101.13,13.52 106.44,12.77"/>
    </edge>
    <edge id=":J7_4" function="internal">
        <lane id=":J7_4_0" index="0" speed="6.54" length="9.14" shape="106.44,19.17 103.93,19.52 102.14,20.57 101.07,22.32 100.71,24.77"/>
    </edge>
    <edge id=":J7_5" function="internal">
        <lane id=":J7_5_0" index="0" speed="13.89" length="20.93" shape="106.44,19.17 85.51,19.17"/>
        <lane id=":J7_5_1" index="1" speed="13.89" length="20.93" shape="106.44,15.97 85.51,15.97"/>
    </edge>
    <edge id=":J7_7" function="internal">
        <lane id=":J7_7_0" index="0" speed="9.23" length="5.00" shape="106.44,15.97 101.49,15.26"/>
    </edge>
    <edge id=":J7_16" function="internal">
        <lane id=":J7_16_0" index="0" speed="9.23" length="14.51" shape="101.49,15.26 101.14,15.21 97.38,12.93 95.18,9.13 94.53,3.81"/>
    </edge>
    <edge id=":J7_8" function="internal">
        <lane id=":J7_8_0" index="0" speed="6.46" length="9.03" shape="100.93,3.94 101.23,6.40 102.25,8.16 103.99,9.22 106.44,9.57"/>
    </edge>
    <edge id=":J7_9" function="internal">
        <lane id=":J7_9_0" index="0" speed="13.89" length="20.87" shape="100.93,3.94 100.71,24.77"/>
        <lane id=":J7_9_1" index="1" speed="13.89" length="20.87" shape="97.73,3.87 97.51,24.77"/>
    </edge>
    <edge id=":J7_11" function="internal">
        <lane id=":J7_11_0" index="0" speed="9.37" length="19.52" shape="97.73,3.87 96.87,9.16 94.55,12.95 90.76,15.21 85.51,15.97"/>
    </edge>
    <edge id=":J7_12" function="internal">
        <lane id=":J7_12_0" index="0" speed="6.66" length="9.35" shape="85.51,9.57 88.01,9.21 89.81,8.11 90.92,6.29 91.33,3.74"/>
    </edge>
    <edge id=":J7_13" function="internal">
        <lane id=":J7_13_0" index="0" speed="13.89" length="20.93" shape="85.51,9.57 106.44,9.57"/>
        <lane id=":J7_13_1" index="1" speed="13.89" length="20.93" shape="85.51,12.77 106.44,12.77"/>
    </edge>
    <edge id=":J7_15" function="internal">
        <lane id=":J7_15_0" index="0" speed="9.26" length="5.01" shape="85.51,12.77 90.47,13.48"/>
    </edge>
    <edge id=":J7_17" function="internal">
        <lane id=":J7_17_0" index="0" speed="9.26" length="14.34" shape="90.47,13.48 90.76,13.52 94.51,15.77 96.76,19.52 97.51,24.77"/>
    </edge>

    <edge id="-E0" from="J2" to="J1" priority="-1">
        <lane id="-E0_0" index="0" speed="13.89" length="43.29" shape="14.51,71.10 -28.78,71.10"/>
        <lane id="-E0_1" index="1" speed="13.89" length="43.29" shape="14.51,67.90 -28.78,67.90"/>
    </edge>
    <edge id="-E1" from="J3" to="J2" priority="-1">
        <lane id="-E1_0" index="0" speed="13.89" length="31.13" shape="29.71,24.77 29.71,55.90"/>
        <lane id="-E1_1" index="1" speed="13.89" length="31.13" shape="26.51,24.77 26.51,55.90"/>
    </edge>
    <edge id="-E10" from="J1" to="J11" priority="-1">
        <lane id="-E10_0" index="0" speed="13.89" length="18.34" shape="-49.58,71.10 -67.92,71.10"/>
        <lane id="-E10_1" index="1" speed="13.89" length="18.34" shape="-49.58,67.90 -67.92,67.90"/>
    </edge>
    <edge id="-E11" from="J12" to="J4" priority="-1">
        <lane id="-E11_0" index="0" speed="13.89" length="18.34" shape="-67.92,9.57 -49.58,9.57"/>
        <lane id="-E11_1" index="1" speed="13.89" length="18.34" shape="-67.92,12.77 -49.58,12.77"/>
    </edge>
    <edge id="-E12" from="J7" to="J0" priority="-1">
        <lane id="-E12_0" index="0" speed="13.89" length="21.12" shape="91.33,3.74 91.76,-17.38"/>
        <lane id="-E12_1" index="1" speed="13.89" length="21.12" shape="94.53,3.81 94.96,-17.31"/>
    </edge>
    <edge id="-E13" from="J6" to="J7" priority="-1">
        <lane id="-E13_0" index="0" speed="13.89" length="31.13" shape="91.11,55.90 91.11,24.77"/>
        <lane id="-E13_1" index="1" speed="13.89" length="31.13" shape="94.31,55.90 94.31,24.77"/>
    </edge>
    <edge id="-E14" from="J13" to="J6" priority="-1">
        <lane id="-E14_0" index="0" speed="13.89" length="13.88" shape="91.00,90.59 91.06,76.71"/>
        <lane id="-E14_1" index="1" speed="13.89" length="13.88" shape="94.20,90.61 94.26,76.72"/>
    </edge>
    <edge id="-E15" from="J6" to="J14" priority="-1">
        <lane id="-E15_0" index="0" speed="13.89" length="22.79" shape="106.31,61.50 129.10,61.50"/>
        <lane id="-E15_1" index="1" speed="13.89" length="22.79" shape="106.31,64.70 129.10,64.70"/>
    </edge>
    <edge id="-E16" from="J7" to="J15" priority="-1">
        <lane id="-E16_0" index="0" speed="13.89" length="22.66" shape="106.44,9.57 129.10,9.57"/>
        <lane id="-E16_1" index="1" speed="13.89" length="22.66" shape="106.44,12.77 129.10,12.77"/>
    </edge>
    <edge id="-E2" from="J4" to="J3" priority="-1">
        <lane id="-E2_0" index="0" speed="13.89" length="43.29" shape="-28.78,9.57 14.51,9.57"/>
        <lane id="-E2_1" index="1" speed="13.89" length="43.29" shape="-28.78,12.77 14.51,12.77"/>
    </edge>
    <edge id="-E3" from="J1" to="J4" priority="-1">
        <lane id="-E3_0" index="0" speed="13.89" length="31.13" shape="-43.98,55.90 -43.98,24.77"/>
        <lane id="-E3_1" index="1" speed="13.89" length="31.13" shape="-40.78,55.90 -40.78,24.77"/>
    </edge>
    <edge id="-E4" from="J5" to="J1" priority="-1">
        <lane id="-E4_0" index="0" speed="13.89" length="15.20" shape="-43.98,91.90 -43.98,76.70"/>
        <lane id="-E4_1" index="1" speed="13.89" length="15.20" shape="-40.78,91.90 -40.78,76.70"/>
    </edge>
    <edge id="-E5" from="J6" to="J2" priority="-1">
        <lane id="-E5_0" index="0" speed="13.89" length="50.17" shape="85.48,71.10 35.31,71.10"/>
        <lane id="-E5_1" index="1" speed="13.89" length="50.17" shape="85.48,67.90 35.31,67.90"/>
    </edge>
    <edge id="-E6" from="J7" to="J3" priority="-1">
        <lane id="-E6_0" index="0" speed="13.89" length="50.20" shape="85.51,19.17 35.31,19.17"/>
        <lane id="-E6_1" index="1" speed="13.89" length="50.20" shape="85.51,15.97 35.31,15.97"/>
    </edge>
    <edge id="-E7" from="J2" to="J8" priority="-1">
        <lane id="-E7_0" index="0" speed="13.89" length="15.20" shape="29.71,76.70 29.71,91.90"/>
        <lane id="-E7_1" index="1" speed="13.89" length="15.20" shape="26.51,76.70 26.51,91.90"/>
    </edge>
    <edge id="-E8" from="J9" to="J3" priority="-1">
        <lane id="-E8_0" index="0" speed="13.89" length="20.99" shape="29.71,-17.02 29.71,3.97"/>
        <lane id="-E8_1" index="1" speed="13.89" length="20.99" shape="26.51,-17.02 26.51,3.97"/>
    </edge>
    <edge id="-E9" from="J4" to="J10" priority="-1">
        <lane id="-E9_0" index="0" speed="13.89" length="20.74" shape="-43.98,3.97 -43.98,-16.77"/>
        <lane id="-E9_1" index="1" speed="13.89" length="20.74" shape="-40.78,3.97 -40.78,-16.77"/>
    </edge>
    <edge id="E0" from="J1" to="J2" priority="-1">
        <lane id="E0_0" index="0" speed="13.89" length="43.29" shape="-28.78,61.50 14.51,61.50"/>
        <lane id="E0_1" index="1" speed="13.89" length="43.29" shape="-28.78,64.70 14.51,64.70"/>
    </edge>
    <edge id="E1" from="J2" to="J3" priority="-1">
        <lane id="E1_0" index="0" speed="13.89" length="31.13" shape="20.11,55.90 20.11,24.77"/>
        <lane id="E1_1" index="1" speed="13.89" length="31.13" shape="23.31,55.90 23.31,24.77"/>
    </edge>
    <edge id="E10" from="J11" to="J1" priority="-1">
        <lane id="E10_0" index="0" speed="13.89" length="18.34" shape="-67.92,61.50 -49.58,61.50"/>
        <lane id="E10_1" index="1" speed="13.89" length="18.34" shape="-67.92,64.70 -49.58,64.70"/>
    </edge>
    <edge id="E11" from="J4" to="J12" priority="-1">
        <lane id="E11_0" index="0" speed="13.89" length="18.34" shape="-49.58,19.17 -67.92,19.17"/>
        <lane id="E11_1" index="1" speed="13.89" length="18.34" shape="-49.58,15.97 -67.92,15.97"/>
    </edge>
    <edge id="E12" from="J0" to="J7" priority="-1">
        <lane id="E12_0" index="0" speed="13.89" length="21.12" shape="101.36,-17.18 100.93,3.94"/>
        <lane id="E12_1" index="1" speed="13.89" length="21.12" shape="98.16,-17.25 97.73,3.87"/>
    </edge>
    <edge id="E13" from="J7" to="J6" priority="-1">
        <lane id="E13_0" index="0" speed="13.89" length="31.13" shape="100.71,24.77 100.71,55.90"/>
        <lane id="E13_1" index="1" speed="13.89" length="31.13" shape="97.51,24.77 97.51,55.90"/>
    </edge>
    <edge id="E14" from="J6" to="J13" priority="-1">
        <lane id="E14_0" index="0" speed="13.89" length="13.88" shape="100.66,76.75 100.60,90.64"/>
        <lane id="E14_1" index="1" speed="13.89" length="13.88" shape="97.46,76.74 97.40,90.62"/>
    </edge>
    <edge id="E15" from="J14" to="J6" priority="-1">
        <lane id="E15_0" index="0" speed="13.89" length="22.79" shape="129.10,71.10 106.31,71.10"/>
        <lane id="E15_1" index="1" speed="13.89" length="22.79" shape="129.10,67.90 106.31,67.90"/>
    </edge>
    <edge id="E16" from="J15" to="J7" priority="-1">
        <lane id="E16_0" index="0" speed="13.89" length="22.66" shape="129.10,19.17 106.44,19.17"/>
        <lane id="E16_1" index="1" speed="13.89" length="22.66" shape="129.10,15.97 106.44,15.97"/>
    </edge>
    <edge id="E2" from="J3" to="J4" priority="-1">
        <lane id="E2_0" index="0" speed="13.89" length="43.29" shape="14.51,19.17 -28.78,19.17"/>
        <lane id="E2_1" index="1" speed="13.89" length="43.29" shape="14.51,15.97 -28.78,15.97"/>
    </edge>
    <edge id="E3" from="J4" to="J1" priority="-1">
        <lane id="E3_0" index="0" speed="13.89" length="31.13" shape="-34.38,24.77 -34.38,55.90"/>
        <lane id="E3_1" index="1" speed="13.89" length="31.13" shape="-37.58,24.77 -37.58,55.90"/>
    </edge>
    <edge id="E4" from="J1" to="J5" priority="-1">
        <lane id="E4_0" index="0" speed="13.89" length="15.20" shape="-34.38,76.70 -34.38,91.90"/>
        <lane id="E4_1" index="1" speed="13.89" length="15.20" shape="-37.58,76.70 -37.58,91.90"/>
    </edge>
    <edge id="E5" from="J2" to="J6" priority="-1">
        <lane id="E5_0" index="0" speed="13.89" length="50.17" shape="35.31,61.50 85.48,61.50"/>
        <lane id="E5_1" index="1" speed="13.89" length="50.17" shape="35.31,64.70 85.48,64.70"/>
    </edge>
    <edge id="E6" from="J3" to="J7" priority="-1">
        <lane id="E6_0" index="0" speed="13.89" length="50.20" shape="35.31,9.57 85.51,9.57"/>
        <lane id="E6_1" index="1" speed="13.89" length="50.20" shape="35.31,12.77 85.51,12.77"/>
    </edge>
    <edge id="E7" from="J8" to="J2" priority="-1">
        <lane id="E7_0" index="0" speed="13.89" length="15.20" shape="20.11,91.90 20.11,76.70"/>
        <lane id="E7_1" index="1" speed="13.89" length="15.20" shape="23.31,91.90 23.31,76.70"/>
    </edge>
    <edge id="E8" from="J3" to="J9" priority="-1">
        <lane id="E8_0" index="0" speed="13.89" length="20.99" shape="20.11,3.97 20.11,-17.02"/>
        <lane id="E8_1" index="1" speed="13.89" length="20.99" shape="23.31,3.97 23.31,-17.02"/>
    </edge>
    <edge id="E9" from="J10" to="J4" priority="-1">
        <lane id="E9_0" index="0" speed="13.89" length="20.74" shape="-34.38,-16.77 -34.38,3.97"/>
        <lane id="E9_1" index="1" speed="13.89" length="20.74" shape="-37.58,-16.77 -37.58,3.97"/>
    </edge>

    <junction id="J0" type="dead_end" x="96.56" y="-17.28" incLanes="-E12_0 -E12_1" intLanes="" shape="96.56,-17.28 90.16,-17.41 96.56,-17.28"/>
    <junction id="J1" type="priority" x="-39.18" y="66.30" incLanes="-E4_0 -E4_1 -E0_0 -E0_1 E3_0 E3_1 E10_0 E10_1" intLanes=":J1_0_0 :J1_1_0 :J1_1_1 :J1_16_0 :J1_4_0 :J1_5_0 :J1_5_1 :J1_7_0 :J1_8_0 :J1_9_0 :J1_9_1 :J1_17_0 :J1_12_0 :J1_13_0 :J1_13_1 :J1_15_0" shape="-45.58,76.70 -32.78,76.70 -32.34,74.48 -31.78,73.70 -31.00,73.14 -30.00,72.81 -28.78,72.70 -28.78,59.90 -31.00,59.46 -31.78,58.90 -32.34,58.12 -32.67,57.12 -32.78,55.90 -45.58,55.90 -46.02,58.12 -46.58,58.90 -47.36,59.46 -48.36,59.79 -49.58,59.90 -49.58,72.70 -47.36,73.14 -46.58,73.70 -46.02,74.48 -45.69,75.48">
        <request index="0"  response="0000000000000000" foes="0000000001100000" cont="0"/>
        <request index="1"  response="0000000000000000" foes="1111100011100000" cont="0"/>
        <request index="2"  response="0000000000000000" foes="1111100011100000" cont="0"/>
        <request index="3"  response="0000011000000000" foes="1110011011100000" cont="1"/>
        <request index="4"  response="0000011000000000" foes="0000011000000000" cont="0"/>
        <request index="5"  response="0000111000001111" foes="1000111000001111" cont="0"/>
        <request index="6"  response="0000111000001111" foes="1000111000001111" cont="0"/>
        <request index="7"  response="0110111000001110" foes="0110111000001110" cont="0"/>
        <request index="8"  response="0000000000000000" foes="0110000000000000" cont="0"/>
        <request index="9"  response="0000000000000000" foes="1110000011111000" cont="0"/>
        <request index="10" response="0000000000000000" foes="1110000011111000" cont="0"/>
        <request index="11" response="0000000000000110" foes="1110000011100110" cont="1"/>
        <request index="12" response="0000000000000110" foes="0000000000000110" cont="0"/>
        <request index="13" response="0000111100001110" foes="0000111110001110" cont="0"/>
        <request index="14" response="0000111100001110" foes="0000111110001110" cont="0"/>
        <request index="15" response="0000111001101110" foes="0000111001101110" cont="0"/>
    </junction>
    <junction id="J10" type="dead_end" x="-39.18" y="-16.77" incLanes="-E9_0 -E9_1" intLanes="" shape="-39.18,-16.77 -45.58,-16.77 -39.18,-16.77"/>
    <junction id="J11" type="dead_end" x="-67.92" y="66.30" incLanes="-E10_0 -E10_1" intLanes="" shape="-67.92,66.30 -67.92,72.70 -67.92,66.30"/>