<?xml version="1.0" encoding="UTF-8"?>

<!-- generated on Thu 22 Apr 2021 12:54:18 PM EDT by Eclipse SUMO netedit Version 1.9.0
<configuration xmlns:xsi="http://www.w3.org/2001/XMLSchema-instance" xsi:noNamespaceSchemaLocation="http://sumo.dlr.de/xsd/netconvertConfiguration.xsd">

    <input>
        <sumo-net-file value="/home/dev/Desktop/BM_Scenarios/basic/straight_away_cutin_2w.net.xml"/>
    </input>

    <output>
        <output-file value="/home/dev/Desktop/BM_Scenarios/basic/straight_away_cutin_2w.net.xml"/>
    </output>

    <processing>
        <geometry.min-radius.fix.railways value="false"/>
        <geometry.max-grade.fix value="false"/>
        <offset.disable-normalization value="true"/>
        <lefthand value="false"/>
    </processing>

    <junctions>
        <no-internal-links value="true"/>
        <no-turnarounds value="true"/>
        <junctions.corner-detail value="5"/>
        <junctions.limit-turn-speed value="5.5"/>
        <rectangular-lane-cut value="false"/>
    </junctions>

    <pedestrian>
        <walkingareas value="false"/>
    </pedestrian>

    <report>
        <aggregate-warnings value="5"/>
    </report>

</configuration>
-->

<net version="1.9" junctionCornerDetail="5" limitTurnSpeed="5.50" xmlns:xsi="http://www.w3.org/2001/XMLSchema-instance" xsi:noNamespaceSchemaLocation="http://sumo.dlr.de/xsd/net_file.xsd">

    <location netOffset="0.00,0.00" convBoundary="-59.67,38.63,660.45,38.68" origBoundary="-10000000000.00,-10000000000.00,10000000000.00,10000000000.00" projParameter="!"/>

    <edge id="straightaway" from="west_end" to="east_end" priority="-1">
        <lane id="straightaway_0" index="0" speed="13.89" length="720.12" shape="-59.67,33.83 660.45,33.88"/>
        <lane id="straightaway_1" index="1" speed="13.89" length="720.12" shape="-59.67,37.03 660.45,37.08"/>
    </edge>

    <junction id="east_end" type="dead_end" x="660.45" y="38.68" incLanes="straightaway_0 straightaway_1" intLanes="" shape="660.45,32.28 660.45,38.68"/>
    <junction id="west_end" type="dead_end" x="-59.67" y="38.63" incLanes="" intLanes="" shape="-59.67,38.63 -59.67,32.23"/>

</net>
