<?xml version="1.0" encoding="UTF-8"?>

<!-- generated on 2022-03-21 10:26:53 by Eclipse SUMO netedit Version 1.12.0
<configuration xmlns:xsi="http://www.w3.org/2001/XMLSchema-instance" xsi:noNamespaceSchemaLocation="http://sumo.dlr.de/xsd/netconvertConfiguration.xsd">

    <input>
        <sumo-net-file value="scenarios/single_following_random/map.net.xml"/>
    </input>

    <output>
        <output-file value="scenarios/single_following_random/map.net.xml"/>
    </output>

    <processing>
        <geometry.min-radius.fix.railways value="false"/>
        <geometry.max-grade.fix value="false"/>
        <offset.disable-normalization value="true"/>
        <lefthand value="false"/>
    </processing>

    <junctions>
        <no-turnarounds value="true"/>
        <junctions.corner-detail value="5"/>
        <junctions.limit-turn-speed value="5.5"/>
        <rectangular-lane-cut value="false"/>
    </junctions>

    <pedestrian>
        <walkingareas value="false"/>
    </pedestrian>

    <report>
        <aggregate-warnings value="5"/>
    </report>

</configuration>
-->

<net version="1.9" junctionCornerDetail="5" limitTurnSpeed="5.50" xmlns:xsi="http://www.w3.org/2001/XMLSchema-instance" xsi:noNamespaceSchemaLocation="http://sumo.dlr.de/xsd/net_file.xsd">

    <location netOffset="0.00,0.00" convBoundary="-165.26,-83.39,208.30,160.34" origBoundary="-10000000000.00,-10000000000.00,10000000000.00,10000000000.00" projParameter="!"/>

    <edge id=":J1_0" function="internal">
        <lane id=":J1_0_0" index="0" speed="6.51" length="9.03" shape="-110.41,79.83 -110.76,77.38 -111.81,75.63 -113.56,74.58 -116.01,74.23"/>
    </edge>
    <edge id=":J1_1" function="internal">
        <lane id=":J1_1_0" index="0" speed="13.89" length="20.80" shape="-110.41,79.83 -110.41,59.03"/>
        <lane id=":J1_1_1" index="1" speed="13.89" length="20.80" shape="-107.21,79.83 -107.21,59.03"/>
    </edge>
    <edge id=":J1_3" function="internal">
        <lane id=":J1_3_0" index="0" speed="9.26" length="5.01" shape="-107.21,79.83 -106.50,74.87"/>
    </edge>
    <edge id=":J1_16" function="internal">
        <lane id=":J1_16_0" index="0" speed="9.26" length="14.34" shape="-106.50,74.87 -106.46,74.58 -104.21,70.83 -100.46,68.58 -95.21,67.83"/>
    </edge>
    <edge id=":J1_4" function="internal">
        <lane id=":J1_4_0" index="0" speed="6.51" length="9.03" shape="-95.21,74.23 -97.66,74.58 -99.41,75.63 -100.46,77.38 -100.81,79.83"/>
    </edge>
    <edge id=":J1_5" function="internal">
        <lane id=":J1_5_0" index="0" speed="13.89" length="20.80" shape="-95.21,74.23 -116.01,74.23"/>
        <lane id=":J1_5_1" index="1" speed="13.89" length="20.80" shape="-95.21,71.03 -116.01,71.03"/>
    </edge>
    <edge id=":J1_7" function="internal">
        <lane id=":J1_7_0" index="0" speed="9.26" length="5.01" shape="-95.21,71.03 -100.17,70.32"/>
    </edge>
    <edge id=":J1_17" function="internal">
        <lane id=":J1_17_0" index="0" speed="9.26" length="14.34" shape="-100.17,70.32 -100.46,70.28 -104.21,68.03 -106.46,64.28 -107.21,59.03"/>
    </edge>
    <edge id=":J1_8" function="internal">
        <lane id=":J1_8_0" index="0" speed="6.51" length="9.03" shape="-100.81,59.03 -100.46,61.48 -99.41,63.23 -97.66,64.28 -95.21,64.63"/>
    </edge>
    <edge id=":J1_9" function="internal">
        <lane id=":J1_9_0" index="0" speed="13.89" length="20.80" shape="-100.81,59.03 -100.81,79.83"/>
        <lane id=":J1_9_1" index="1" speed="13.89" length="20.80" shape="-104.01,59.03 -104.01,79.83"/>
    </edge>
    <edge id=":J1_11" function="internal">
        <lane id=":J1_11_0" index="0" speed="9.26" length="5.01" shape="-104.01,59.03 -104.72,63.99"/>
    </edge>
    <edge id=":J1_18" function="internal">
        <lane id=":J1_18_0" index="0" speed="9.26" length="14.34" shape="-104.72,63.99 -104.76,64.28 -107.01,68.03 -110.76,70.28 -116.01,71.03"/>
    </edge>
    <edge id=":J1_12" function="internal">
        <lane id=":J1_12_0" index="0" speed="6.51" length="9.03" shape="-116.01,64.63 -113.56,64.28 -111.81,63.23 -110.76,61.48 -110.41,59.03"/>
    </edge>
    <edge id=":J1_13" function="internal">
        <lane id=":J1_13_0" index="0" speed="13.89" length="20.80" shape="-116.01,64.63 -95.21,64.63"/>
        <lane id=":J1_13_1" index="1" speed="13.89" length="20.80" shape="-116.01,67.83 -95.21,67.83"/>
    </edge>
    <edge id=":J1_15" function="internal">
        <lane id=":J1_15_0" index="0" speed="9.26" length="5.01" shape="-116.01,67.83 -111.05,68.54"/>
    </edge>
    <edge id=":J1_19" function="internal">
        <lane id=":J1_19_0" index="0" speed="9.26" length="14.34" shape="-111.05,68.54 -110.76,68.58 -107.01,70.83 -104.76,74.58 -104.01,79.83"/>
    </edge>
    <edge id=":J2_0" function="internal">
        <lane id=":J2_0_0" index="0" speed="6.51" length="9.03" shape="20.11,79.83 19.76,77.38 18.71,75.63 16.96,74.58 14.51,74.23"/>
    </edge>
    <edge id=":J2_1" function="internal">
        <lane id=":J2_1_0" index="0" speed="13.89" length="20.80" shape="20.11,79.83 20.11,59.03"/>
        <lane id=":J2_1_1" index="1" speed="13.89" length="20.80" shape="23.31,79.83 23.31,59.03"/>
    </edge>
    <edge id=":J2_3" function="internal">
        <lane id=":J2_3_0" index="0" speed="9.26" length="5.01" shape="23.31,79.83 24.02,74.87"/>
    </edge>
    <edge id=":J2_16" function="internal">
        <lane id=":J2_16_0" index="0" speed="9.26" length="14.34" shape="24.02,74.87 24.06,74.58 26.31,70.83 30.06,68.58 35.31,67.83"/>
    </edge>
    <edge id=":J2_4" function="internal">
        <lane id=":J2_4_0" index="0" speed="6.51" length="9.03" shape="35.31,74.23 32.86,74.58 31.11,75.63 30.06,77.38 29.71,79.83"/>
    </edge>
    <edge id=":J2_5" function="internal">
        <lane id=":J2_5_0" index="0" speed="13.89" length="20.80" shape="35.31,74.23 14.51,74.23"/>
        <lane id=":J2_5_1" index="1" speed="13.89" length="20.80" shape="35.31,71.03 14.51,71.03"/>
    </edge>
    <edge id=":J2_7" function="internal">
        <lane id=":J2_7_0" index="0" speed="9.26" length="5.01" shape="35.31,71.03 30.35,70.32"/>
    </edge>
    <edge id=":J2_17" function="internal">
        <lane id=":J2_17_0" index="0" speed="9.26" length="14.34" shape="30.35,70.32 30.06,70.28 26.31,68.03 24.06,64.28 23.31,59.03"/>
    </edge>
    <edge id=":J2_8" function="internal">
        <lane id=":J2_8_0" index="0" speed="6.51" length="9.03" shape="29.71,59.03 30.06,61.48 31.11,63.23 32.86,64.28 35.31,64.63"/>
    </edge>
    <edge id=":J2_9" function="internal">
        <lane id=":J2_9_0" index="0" speed="13.89" length="20.80" shape="29.71,59.03 29.71,79.83"/>
        <lane id=":J2_9_1" index="1" speed="13.89" length="20.80" shape="26.51,59.03 26.51,79.83"/>
    </edge>
    <edge id=":J2_11" function="internal">
        <lane id=":J2_11_0" index="0" speed="9.26" length="5.01" shape="26.51,59.03 25.80,63.99"/>
    </edge>
    <edge id=":J2_18" function="internal">
        <lane id=":J2_18_0" index="0" speed="9.26" length="14.34" shape="25.80,63.99 25.76,64.28 23.51,68.03 19.76,70.28 14.51,71.03"/>
    </edge>
    <edge id=":J2_12" function="internal">
        <lane id=":J2_12_0" index="0" speed="6.51" length="9.03" shape="14.51,64.63 16.96,64.28 18.71,63.23 19.76,61.48 20.11,59.03"/>
    </edge>
    <edge id=":J2_13" function="internal">
        <lane id=":J2_13_0" index="0" speed="13.89" length="20.80" shape="14.51,64.63 35.31,64.63"/>
        <lane id=":J2_13_1" index="1" speed="13.89" length="20.80" shape="14.51,67.83 35.31,67.83"/>
    </edge>
    <edge id=":J2_15" function="internal">
        <lane id=":J2_15_0" index="0" speed="9.26" length="5.01" shape="14.51,67.83 19.47,68.54"/>
    </edge>
    <edge id=":J2_19" function="internal">
        <lane id=":J2_19_0" index="0" speed="9.26" length="14.34" shape="19.47,68.54 19.76,68.58 23.51,70.83 25.76,74.58 26.51,79.83"/>
    </edge>
    <edge id=":J3_0" function="internal">
        <lane id=":J3_0_0" index="0" speed="6.51" length="9.03" shape="20.11,-13.77 19.76,-16.22 18.71,-17.97 16.96,-19.02 14.51,-19.37"/>
    </edge>
    <edge id=":J3_1" function="internal">
        <lane id=":J3_1_0" index="0" speed="13.89" length="20.80" shape="20.11,-13.77 20.11,-34.57"/>
        <lane id=":J3_1_1" index="1" speed="13.89" length="20.80" shape="23.31,-13.77 23.31,-34.57"/>
    </edge>
    <edge id=":J3_3" function="internal">
        <lane id=":J3_3_0" index="0" speed="9.26" length="5.01" shape="23.31,-13.77 24.02,-18.73"/>
    </edge>
    <edge id=":J3_16" function="internal">
        <lane id=":J3_16_0" index="0" speed="9.26" length="14.34" shape="24.02,-18.73 24.06,-19.02 26.31,-22.77 30.06,-25.02 35.31,-25.77"/>
    </edge>
    <edge id=":J3_4" function="internal">
        <lane id=":J3_4_0" index="0" speed="6.51" length="9.03" shape="35.31,-19.37 32.86,-19.02 31.11,-17.97 30.06,-16.22 29.71,-13.77"/>
    </edge>
    <edge id=":J3_5" function="internal">
        <lane id=":J3_5_0" index="0" speed="13.89" length="20.80" shape="35.31,-19.37 14.51,-19.37"/>
        <lane id=":J3_5_1" index="1" speed="13.89" length="20.80" shape="35.31,-22.57 14.51,-22.57"/>
    </edge>
    <edge id=":J3_7" function="internal">
        <lane id=":J3_7_0" index="0" speed="9.26" length="5.01" shape="35.31,-22.57 30.35,-23.28"/>
    </edge>
    <edge id=":J3_17" function="internal">
        <lane id=":J3_17_0" index="0" speed="9.26" length="14.34" shape="30.35,-23.28 30.06,-23.32 26.31,-25.57 24.06,-29.32 23.31,-34.57"/>
    </edge>
    <edge id=":J3_8" function="internal">
        <lane id=":J3_8_0" index="0" speed="6.51" length="9.03" shape="29.71,-34.57 30.06,-32.12 31.11,-30.37 32.86,-29.32 35.31,-28.97"/>
    </edge>
    <edge id=":J3_9" function="internal">
        <lane id=":J3_9_0" index="0" speed="13.89" length="20.80" shape="29.71,-34.57 29.71,-13.77"/>
        <lane id=":J3_9_1" index="1" speed="13.89" length="20.80" shape="26.51,-34.57 26.51,-13.77"/>
    </edge>
    <edge id=":J3_11" function="internal">
        <lane id=":J3_11_0" index="0" speed="9.26" length="5.01" shape="26.51,-34.57 25.80,-29.61"/>
    </edge>
    <edge id=":J3_18" function="internal">
        <lane id=":J3_18_0" index="0" speed="9.26" length="14.34" shape="25.80,-29.61 25.76,-29.32 23.51,-25.57 19.76,-23.32 14.51,-22.57"/>
    </edge>
    <edge id=":J3_12" function="internal">
        <lane id=":J3_12_0" index="0" speed="6.51" length="9.03" shape="14.51,-28.97 16.96,-29.32 18.71,-30.37 19.76,-32.12 20.11,-34.57"/>
    </edge>
    <edge id=":J3_13" function="internal">
        <lane id=":J3_13_0" index="0" speed="13.89" length="20.80" shape="14.51,-28.97 35.31,-28.97"/>
        <lane id=":J3_13_1" index="1" speed="13.89" length="20.80" shape="14.51,-25.77 35.31,-25.77"/>
    </edge>
    <edge id=":J3_15" function="internal">
        <lane id=":J3_15_0" index="0" speed="9.26" length="5.01" shape="14.51,-25.77 19.47,-25.06"/>
    </edge>
    <edge id=":J3_19" function="internal">
        <lane id=":J3_19_0" index="0" speed="9.26" length="14.34" shape="19.47,-25.06 19.76,-25.02 23.51,-22.77 25.76,-19.02 26.51,-13.77"/>
    </edge>
    <edge id=":J4_0" function="internal">
        <lane id=":J4_0_0" index="0" speed="6.51" length="9.03" shape="-110.41,-13.77 -110.76,-16.22 -111.81,-17.97 -113.56,-19.02 -116.01,-19.37"/>
    </edge>
    <edge id=":J4_1" function="internal">
        <lane id=":J4_1_0" index="0" speed="13.89" length="20.80" shape="-110.41,-13.77 -110.41,-34.57"/>
        <lane id=":J4_1_1" index="1" speed="13.89" length="20.80" shape="-107.21,-13.77 -107.21,-34.57"/>
    </edge>
    <edge id=":J4_3" function="internal">
        <lane id=":J4_3_0" index="0" speed="9.26" length="5.01" shape="-107.21,-13.77 -106.50,-18.73"/>
    </edge>
    <edge id=":J4_16" function="internal">
        <lane id=":J4_16_0" index="0" speed="9.26" length="14.34" shape="-106.50,-18.73 -106.46,-19.02 -104.21,-22.77 -100.46,-25.02 -95.21,-25.77"/>
    </edge>
    <edge id=":J4_4" function="internal">
        <lane id=":J4_4_0" index="0" speed="6.51" length="9.03" shape="-95.21,-19.37 -97.66,-19.02 -99.41,-17.97 -100.46,-16.22 -100.81,-13.77"/>
    </edge>
    <edge id=":J4_5" function="internal">
        <lane id=":J4_5_0" index="0" speed="13.89" length="20.80" shape="-95.21,-19.37 -116.01,-19.37"/>
        <lane id=":J4_5_1" index="1" speed="13.89" length="20.80" shape="-95.21,-22.57 -116.01,-22.57"/>
    </edge>
    <edge id=":J4_7" function="internal">
        <lane id=":J4_7_0" index="0" speed="9.26" length="5.01" shape="-95.21,-22.57 -100.17,-23.28"/>
    </edge>
    <edge id=":J4_17" function="internal">
        <lane id=":J4_17_0" index="0" speed="9.26" length="14.34" shape="-100.17,-23.28 -100.46,-23.32 -104.21,-25.57 -106.46,-29.32 -107.21,-34.57"/>
    </edge>
    <edge id=":J4_8" function="internal">
        <lane id=":J4_8_0" index="0" speed="6.51" length="9.03" shape="-100.81,-34.57 -100.46,-32.12 -99.41,-30.37 -97.66,-29.32 -95.21,-28.97"/>
    </edge>
    <edge id=":J4_9" function="internal">
        <lane id=":J4_9_0" index="0" speed="13.89" length="20.80" shape="-100.81,-34.57 -100.81,-13.77"/>
        <lane id=":J4_9_1" index="1" speed="13.89" length="20.80" shape="-104.01,-34.57 -104.01,-13.77"/>
    </edge>
    <edge id=":J4_11" function="internal">
        <lane id=":J4_11_0" index="0" speed="9.26" length="5.01" shape="-104.01,-34.57 -104.72,-29.61"/>
    </edge>
    <edge id=":J4_18" function="internal">
        <lane id=":J4_18_0" index="0" speed="9.26" length="14.34" shape="-104.72,-29.61 -104.76,-29.32 -107.01,-25.57 -110.76,-23.32 -116.01,-22.57"/>
    </edge>
    <edge id=":J4_12" function="internal">
        <lane id=":J4_12_0" index="0" speed="6.51" length="9.03" shape="-116.01,-28.97 -113.56,-29.32 -111.81,-30.37 -110.76,-32.12 -110.41,-34.57"/>
    </edge>
    <edge id=":J4_13" function="internal">
        <lane id=":J4_13_0" index="0" speed="13.89" length="20.80" shape="-116.01,-28.97 -95.21,-28.97"/>
        <lane id=":J4_13_1" index="1" speed="13.89" length="20.80" shape="-116.01,-25.77 -95.21,-25.77"/>
    </edge>
    <edge id=":J4_15" function="internal">
        <lane id=":J4_15_0" index="0" speed="9.26" length="5.01" shape="-116.01,-25.77 -111.05,-25.06"/>
    </edge>
    <edge id=":J4_19" function="internal">
        <lane id=":J4_19_0" index="0" speed="9.26" length="14.34" shape="-111.05,-25.06 -110.76,-25.02 -107.01,-22.77 -104.76,-19.02 -104.01,-13.77"/>
    </edge>
    <edge id=":J6_0" function="internal">
        <lane id=":J6_0_0" index="0" speed="6.51" length="9.03" shape="134.85,79.83 134.50,77.38 133.45,75.63 131.70,74.58 129.25,74.23"/>
    </edge>
    <edge id=":J6_1" function="internal">
        <lane id=":J6_1_0" index="0" speed="13.89" length="20.80" shape="134.85,79.83 134.85,59.03"/>
        <lane id=":J6_1_1" index="1" speed="13.89" length="20.80" shape="138.05,79.83 138.05,59.03"/>
    </edge>
    <edge id=":J6_3" function="internal">
        <lane id=":J6_3_0" index="0" speed="9.26" length="5.01" shape="138.05,79.83 138.76,74.87"/>
    </edge>
    <edge id=":J6_16" function="internal">
        <lane id=":J6_16_0" index="0" speed="9.26" length="14.34" shape="138.76,74.87 138.80,74.58 141.05,70.83 144.80,68.58 150.05,67.83"/>
    </edge>
    <edge id=":J6_4" function="internal">
        <lane id=":J6_4_0" index="0" speed="6.51" length="9.03" shape="150.05,74.23 147.60,74.58 145.85,75.63 144.80,77.38 144.45,79.83"/>
    </edge>
    <edge id=":J6_5" function="internal">
        <lane id=":J6_5_0" index="0" speed="13.89" length="20.80" shape="150.05,74.23 129.25,74.23"/>
        <lane id=":J6_5_1" index="1" speed="13.89" length="20.80" shape="150.05,71.03 129.25,71.03"/>
    </edge>
    <edge id=":J6_7" function="internal">
        <lane id=":J6_7_0" index="0" speed="9.26" length="5.01" shape="150.05,71.03 145.09,70.32"/>
    </edge>
    <edge id=":J6_17" function="internal">
        <lane id=":J6_17_0" index="0" speed="9.26" length="14.34" shape="145.09,70.32 144.80,70.28 141.05,68.03 138.80,64.28 138.05,59.03"/>
    </edge>
    <edge id=":J6_8" function="internal">
        <lane id=":J6_8_0" index="0" speed="6.51" length="9.03" shape="144.45,59.03 144.80,61.48 145.85,63.23 147.60,64.28 150.05,64.63"/>
    </edge>
    <edge id=":J6_9" function="internal">
        <lane id=":J6_9_0" index="0" speed="13.89" length="20.80" shape="144.45,59.03 144.45,79.83"/>
        <lane id=":J6_9_1" index="1" speed="13.89" length="20.80" shape="141.25,59.03 141.25,79.83"/>
    </edge>
    <edge id=":J6_11" function="internal">
        <lane id=":J6_11_0" index="0" speed="9.26" length="5.01" shape="141.25,59.03 140.54,63.99"/>
    </edge>
    <edge id=":J6_18" function="internal">
        <lane id=":J6_18_0" index="0" speed="9.26" length="14.34" shape="140.54,63.99 140.50,64.28 138.25,68.03 134.50,70.28 129.25,71.03"/>
    </edge>
    <edge id=":J6_12" function="internal">
        <lane id=":J6_12_0" index="0" speed="6.51" length="9.03" shape="129.25,64.63 131.70,64.28 133.45,63.23 134.50,61.48 134.85,59.03"/>
    </edge>
    <edge id=":J6_13" function="internal">
        <lane id=":J6_13_0" index="0" speed="13.89" length="20.80" shape="129.25,64.63 150.05,64.63"/>
        <lane id=":J6_13_1" index="1" speed="13.89" length="20.80" shape="129.25,67.83 150.05,67.83"/>
    </edge>
    <edge id=":J6_15" function="internal">
        <lane id=":J6_15_0" index="0" speed="9.26" length="5.01" shape="129.25,67.83 134.21,68.54"/>
    </edge>
    <edge id=":J6_19" function="internal">
        <lane id=":J6_19_0" index="0" speed="9.26" length="14.34" shape="134.21,68.54 134.50,68.58 138.25,70.83 140.50,74.58 141.25,79.83"/>
    </edge>
    <edge id=":J7_0" function="internal">
        <lane id=":J7_0_0" index="0" speed="6.51" length="9.03" shape="134.85,-13.77 134.50,-16.22 133.45,-17.97 131.70,-19.02 129.25,-19.37"/>
    </edge>
    <edge id=":J7_1" function="internal">
        <lane id=":J7_1_0" index="0" speed="13.89" length="20.80" shape="134.85,-13.77 134.85,-34.57"/>
        <lane id=":J7_1_1" index="1" speed="13.89" length="20.80" shape="138.05,-13.77 138.05,-34.57"/>
    </edge>
    <edge id=":J7_3" function="internal">
        <lane id=":J7_3_0" index="0" speed="9.26" length="5.01" shape="138.05,-13.77 138.76,-18.73"/>
    </edge>
    <edge id=":J7_16" function="internal">
        <lane id=":J7_16_0" index="0" speed="9.26" length="14.34" shape="138.76,-18.73 138.80,-19.02 141.05,-22.77 144.80,-25.02 150.05,-25.77"/>
    </edge>
    <edge id=":J7_4" function="internal">
        <lane id=":J7_4_0" index="0" speed="6.51" length="9.03" shape="150.05,-19.37 147.60,-19.02 145.85,-17.97 144.80,-16.22 144.45,-13.77"/>
    </edge>
    <edge id=":J7_5" function="internal">
        <lane id=":J7_5_0" index="0" speed="13.89" length="20.80" shape="150.05,-19.37 129.25,-19.37"/>
        <lane id=":J7_5_1" index="1" speed="13.89" length="20.80" shape="150.05,-22.57 129.25,-22.57"/>
    </edge>
    <edge id=":J7_7" function="internal">
        <lane id=":J7_7_0" index="0" speed="9.26" length="5.01" shape="150.05,-22.57 145.09,-23.28"/>
    </edge>
    <edge id=":J7_17" function="internal">
        <lane id=":J7_17_0" index="0" speed="9.26" length="14.34" shape="145.09,-23.28 144.80,-23.32 141.05,-25.57 138.80,-29.32 138.05,-34.57"/>
    </edge>
    <edge id=":J7_8" function="internal">
        <lane id=":J7_8_0" index="0" speed="6.51" length="9.03" shape="144.45,-34.57 144.80,-32.12 145.85,-30.37 147.60,-29.32 150.05,-28.97"/>
    </edge>
    <edge id=":J7_9" function="internal">
        <lane id=":J7_9_0" index="0" speed="13.89" length="20.80" shape="144.45,-34.57 144.45,-13.77"/>
        <lane id=":J7_9_1" index="1" speed="13.89" length="20.80" shape="141.25,-34.57 141.25,-13.77"/>
    </edge>
    <edge id=":J7_11" function="internal">
        <lane id=":J7_11_0" index="0" speed="9.26" length="5.01" shape="141.25,-34.57 140.54,-29.61"/>
    </edge>
    <edge id=":J7_18" function="internal">
        <lane id=":J7_18_0" index="0" speed="9.26" length="14.34" shape="140.54,-29.61 140.50,-29.32 138.25,-25.57 134.50,-23.32 129.25,-22.57"/>
    </edge>
    <edge id=":J7_12" function="internal">
        <lane id=":J7_12_0" index="0" speed="6.51" length="9.03" shape="129.25,-28.97 131.70,-29.32 133.45,-30.37 134.50,-32.12 134.85,-34.57"/>
    </edge>
    <edge id=":J7_13" function="internal">
        <lane id=":J7_13_0" index="0" speed="13.89" length="20.80" shape="129.25,-28.97 150.05,-28.97"/>
        <lane id=":J7_13_1" index="1" speed="13.89" length="20.80" shape="129.25,-25.77 150.05,-25.77"/>
    </edge>
    <edge id=":J7_15" function="internal">
        <lane id=":J7_15_0" index="0" speed="9.26" length="5.01" shape="129.25,-25.77 134.21,-25.06"/>
    </edge>
    <edge id=":J7_19" function="internal">
        <lane id=":J7_19_0" index="0" speed="9.26" length="14.34" shape="134.21,-25.06 134.50,-25.02 138.25,-22.77 140.50,-19.02 141.25,-13.77"/>
    </edge>

    <edge id="-E0" from="J2" to="J1" priority="-1">
        <lane id="-E0_0" index="0" speed="13.89" length="109.72" shape="14.51,74.23 -95.21,74.23"/>
        <lane id="-E0_1" index="1" speed="13.89" length="109.72" shape="14.51,71.03 -95.21,71.03"/>
    </edge>
    <edge id="-E1" from="J3" to="J2" priority="-1">
        <lane id="-E1_0" index="0" speed="13.89" length="72.80" shape="29.71,-13.77 29.71,59.03"/>
        <lane id="-E1_1" index="1" speed="13.89" length="72.80" shape="26.51,-13.77 26.51,59.03"/>
    </edge>
    <edge id="-E10" from="J1" to="J11" priority="-1">
        <lane id="-E10_0" index="0" speed="13.89" length="49.25" shape="-116.01,74.23 -165.26,74.23"/>
        <lane id="-E10_1" index="1" speed="13.89" length="49.25" shape="-116.01,71.03 -165.26,71.03"/>
    </edge>
    <edge id="-E11" from="J12" to="J4" priority="-1">
        <lane id="-E11_0" index="0" speed="13.89" length="49.25" shape="-165.26,-28.97 -116.01,-28.97"/>
        <lane id="-E11_1" index="1" speed="13.89" length="49.25" shape="-165.26,-25.77 -116.01,-25.77"/>
    </edge>
    <edge id="-E12" from="J7" to="J0" priority="-1">
        <lane id="-E12_0" index="0" speed="13.89" length="48.82" shape="134.85,-34.57 134.85,-83.39"/>
        <lane id="-E12_1" index="1" speed="13.89" length="48.82" shape="138.05,-34.57 138.05,-83.39"/>
    </edge>
    <edge id="-E13" from="J6" to="J7" priority="-1">
        <lane id="-E13_0" index="0" speed="13.89" length="72.80" shape="134.85,59.03 134.85,-13.77"/>
        <lane id="-E13_1" index="1" speed="13.89" length="72.80" shape="138.05,59.03 138.05,-13.77"/>
    </edge>
    <edge id="-E14" from="J13" to="J6" priority="-1">
        <lane id="-E14_0" index="0" speed="13.89" length="75.11" shape="134.85,154.94 134.85,79.83"/>
        <lane id="-E14_1" index="1" speed="13.89" length="75.11" shape="138.05,154.94 138.05,79.83"/>
    </edge>
    <edge id="-E15" from="J6" to="J14" priority="-1">
        <lane id="-E15_0" index="0" speed="13.89" length="55.07" shape="150.05,64.63 205.12,64.63"/>
        <lane id="-E15_1" index="1" speed="13.89" length="55.07" shape="150.05,67.83 205.12,67.83"/>
    </edge>
    <edge id="-E16" from="J7" to="J15" priority="-1">
        <lane id="-E16_0" index="0" speed="13.89" length="58.25" shape="150.05,-28.97 208.30,-28.97"/>
        <lane id="-E16_1" index="1" speed="13.89" length="58.25" shape="150.05,-25.77 208.30,-25.77"/>
    </edge>
    <edge id="-E2" from="J4" to="J3" priority="-1">
        <lane id="-E2_0" index="0" speed="13.89" length="109.72" shape="-95.21,-28.97 14.51,-28.97"/>
        <lane id="-E2_1" index="1" speed="13.89" length="109.72" shape="-95.21,-25.77 14.51,-25.77"/>
    </edge>
    <edge id="-E3" from="J1" to="J4" priority="-1">
        <lane id="-E3_0" index="0" speed="13.89" length="72.80" shape="-110.41,59.03 -110.41,-13.77"/>
        <lane id="-E3_1" index="1" speed="13.89" length="72.80" shape="-107.21,59.03 -107.21,-13.77"/>
    </edge>
    <edge id="-E4" from="J5" to="J1" priority="-1">
        <lane id="-E4_0" index="0" speed="13.89" length="80.51" shape="-110.41,160.34 -110.41,79.83"/>
        <lane id="-E4_1" index="1" speed="13.89" length="80.51" shape="-107.21,160.34 -107.21,79.83"/>
    </edge>
    <edge id="-E5" from="J6" to="J2" priority="-1">
        <lane id="-E5_0" index="0" speed="13.89" length="93.94" shape="129.25,74.23 35.31,74.23"/>
        <lane id="-E5_1" index="1" speed="13.89" length="93.94" shape="129.25,71.03 35.31,71.03"/>
    </edge>
    <edge id="-E6" from="J7" to="J3" priority="-1">
        <lane id="-E6_0" index="0" speed="13.89" length="93.94" shape="129.25,-19.37 35.31,-19.37"/>
        <lane id="-E6_1" index="1" speed="13.89" length="93.94" shape="129.25,-22.57 35.31,-22.57"/>
    </edge>
    <edge id="-E7" from="J2" to="J8" priority="-1">
        <lane id="-E7_0" index="0" speed="13.89" length="75.04" shape="29.71,79.83 29.71,154.87"/>
        <lane id="-E7_1" index="1" speed="13.89" length="75.04" shape="26.51,79.83 26.51,154.87"/>
    </edge>
    <edge id="-E8" from="J9" to="J3" priority="-1">
        <lane id="-E8_0" index="0" speed="13.89" length="46.35" shape="29.71,-80.92 29.71,-34.57"/>
        <lane id="-E8_1" index="1" speed="13.89" length="46.35" shape="26.51,-80.92 26.51,-34.57"/>
    </edge>
    <edge id="-E9" from="J4" to="J10" priority="-1">
        <lane id="-E9_0" index="0" speed="13.89" length="45.69" shape="-110.41,-34.57 -110.41,-80.26"/>
        <lane id="-E9_1" index="1" speed="13.89" length="45.69" shape="-107.21,-34.57 -107.21,-80.26"/>
    </edge>
    <edge id="E0" from="J1" to="J2" priority="-1">
        <lane id="E0_0" index="0" speed="13.89" length="109.72" shape="-95.21,64.63 14.51,64.63"/>
        <lane id="E0_1" index="1" speed="13.89" length="109.72" shape="-95.21,67.83 14.51,67.83"/>
    </edge>
    <edge id="E1" from="J2" to="J3" priority="-1">
        <lane id="E1_0" index="0" speed="13.89" length="72.80" shape="20.11,59.03 20.11,-13.77"/>
        <lane id="E1_1" index="1" speed="13.89" length="72.80" shape="23.31,59.03 23.31,-13.77"/>
    </edge>
    <edge id="E10" from="J11" to="J1" priority="-1">
        <lane id="E10_0" index="0" speed="13.89" length="49.25" shape="-165.26,64.63 -116.01,64.63"/>
        <lane id="E10_1" index="1" speed="13.89" length="49.25" shape="-165.26,67.83 -116.01,67.83"/>
    </edge>
    <edge id="E11" from="J4" to="J12" priority="-1">
        <lane id="E11_0" index="0" speed="13.89" length="49.25" shape="-116.01,-19.37 -165.26,-19.37"/>
        <lane id="E11_1" index="1" speed="13.89" length="49.25" shape="-116.01,-22.57 -165.26,-22.57"/>
    </edge>
    <edge id="E12" from="J0" to="J7" priority="-1">
        <lane id="E12_0" index="0" speed="13.89" length="48.82" shape="144.45,-83.39 144.45,-34.57"/>
        <lane id="E12_1" index="1" speed="13.89" length="48.82" shape="141.25,-83.39 141.25,-34.57"/>
    </edge>
    <edge id="E13" from="J7" to="J6" priority="-1">
        <lane id="E13_0" index="0" speed="13.89" length="72.80" shape="144.45,-13.77 144.45,59.03"/>
        <lane id="E13_1" index="1" speed="13.89" length="72.80" shape="141.25,-13.77 141.25,59.03"/>
    </edge>
    <edge id="E14" from="J6" to="J13" priority="-1">
        <lane id="E14_0" index="0" speed="13.89" length="75.11" shape="144.45,79.83 144.45,154.94"/>
        <lane id="E14_1" index="1" speed="13.89" length="75.11" shape="141.25,79.83 141.25,154.94"/>
    </edge>
    <edge id="E15" from="J14" to="J6" priority="-1">
        <lane id="E15_0" index="0" speed="13.89" length="55.07" shape="205.12,74.23 150.05,74.23"/>
        <lane id="E15_1" index="1" speed="13.89" length="55.07" shape="205.12,71.03 150.05,71.03"/>
    </edge>
    <edge id="E16" from="J15" to="J7" priority="-1">
        <lane id="E16_0" index="0" speed="13.89" length="58.25" shape="208.30,-19.37 150.05,-19.37"/>
        <lane id="E16_1" index="1" speed="13.89" length="58.25" shape="208.30,-22.57 150.05,-22.57"/>
    </edge>
    <edge id="E2" from="J3" to="J4" priority="-1">
        <lane id="E2_0" index="0" speed="13.89" length="109.72" shape="14.51,-19.37 -95.21,-19.37"/>
        <lane id="E2_1" index="1" speed="13.89" length="109.72" shape="14.51,-22.57 -95.21,-22.57"/>
    </edge>
    <edge id="E3" from="J4" to="J1" priority="-1">
        <lane id="E3_0" index="0" speed="13.89" length="72.80" shape="-100.81,-13.77 -100.81,59.03"/>
        <lane id="E3_1" index="1" speed="13.89" length="72.80" shape="-104.01,-13.77 -104.01,59.03"/>
    </edge>
    <edge id="E4" from="J1" to="J5" priority="-1">
        <lane id="E4_0" index="0" speed="13.89" length="80.51" shape="-100.81,79.83 -100.81,160.34"/>
        <lane id="E4_1" index="1" speed="13.89" length="80.51" shape="-104.01,79.83 -104.01,160.34"/>
    </edge>
    <edge id="E5" from="J2" to="J6" priority="-1">
        <lane id="E5_0" index="0" speed="13.89" length="93.94" shape="35.31,64.63 129.25,64.63"/>
        <lane id="E5_1" index="1" speed="13.89" length="93.94" shape="35.31,67.83 129.25,67.83"/>
    </edge>
    <edge id="E6" from="J3" to="J7" priority="-1">
        <lane id="E6_0" index="0" speed="13.89" length="93.94" shape="35.31,-28.97 129.25,-28.97"/>
        <lane id="E6_1" index="1" speed="13.89" length="93.94" shape="35.31,-25.77 129.25,-25.77"/>
    </edge>
    <edge id="E7" from="J8" to="J2" priority="-1">
        <lane id="E7_0" index="0" speed="13.89" length="75.04" shape="20.11,154.87 20.11,79.83"/>
        <lane id="E7_1" index="1" speed="13.89" length="75.04" shape="23.31,154.87 23.31,79.83"/>
    </edge>
    <edge id="E8" from="J3" to="J9" priority="-1">
        <lane id="E8_0" index="0" speed="13.89" length="46.35" shape="20.11,-34.57 20.11,-80.92"/>
        <lane id="E8_1" index="1" speed="13.89" length="46.35" shape="23.31,-34.57 23.31,-80.92"/>
    </edge>
    <edge id="E9" from="J10" to="J4" priority="-1">
        <lane id="E9_0" index="0" speed="13.89" length="45.69" shape="-100.81,-80.26 -100.81,-34.57"/>
        <lane id="E9_1" index="1" speed="13.89" length="45.69" shape="-104.01,-80.26 -104.01,-34.57"/>
    </edge>
